
OS:Version,
  {2e6cbb8e-810f-4f19-bbc6-eddb207c511c}, !- Handle
  3.0.1,                                  !- Version Identifier
  rc2;                                    !- Prerelease Identifier

OS:ThermalZone,
  {947a3cc4-ba4e-4417-a0cd-2538738ada54}, !- Handle
  storey-1-zone-1,                        !- Name
  ,                                       !- Multiplier
  ,                                       !- Ceiling Height {m}
  ,                                       !- Volume {m3}
  ,                                       !- Floor Area {m2}
  ,                                       !- Zone Inside Convection Algorithm
  ,                                       !- Zone Outside Convection Algorithm
  ,                                       !- Zone Conditioning Equipment List Name
  {dd0beca5-d1d5-424e-be98-8551cbe66ef4}, !- Zone Air Inlet Port List
  {78dc54b3-92cb-438f-9198-4f93b6ca6e43}, !- Zone Air Exhaust Port List
  {e24766d4-c869-4b70-8427-fb1d86a75422}, !- Zone Air Node Name
  {1953bebd-b9df-4aef-b1aa-519acb63dd19}, !- Zone Return Air Port List
  ,                                       !- Primary Daylighting Control Name
  ,                                       !- Fraction of Zone Controlled by Primary Daylighting Control
  ,                                       !- Secondary Daylighting Control Name
  ,                                       !- Fraction of Zone Controlled by Secondary Daylighting Control
  ,                                       !- Illuminance Map Name
  ,                                       !- Group Rendering Name
  {d0f8280d-f332-48c7-a240-2f62d0556352}, !- Thermostat Name
  No;                                     !- Use Ideal Air Loads

OS:Node,
  {b32caad8-575a-4de7-9bc6-60f3f09413a2}, !- Handle
  storey-1-zone-1 Zone Air Node,          !- Name
  {e24766d4-c869-4b70-8427-fb1d86a75422}, !- Inlet Port
  ;                                       !- Outlet Port

OS:Connection,
  {e24766d4-c869-4b70-8427-fb1d86a75422}, !- Handle
  {cc95baf6-8abc-4adb-86d2-a891760a6b2d}, !- Name
  {947a3cc4-ba4e-4417-a0cd-2538738ada54}, !- Source Object
  11,                                     !- Outlet Port
  {b32caad8-575a-4de7-9bc6-60f3f09413a2}, !- Target Object
  2;                                      !- Inlet Port

OS:PortList,
  {dd0beca5-d1d5-424e-be98-8551cbe66ef4}, !- Handle
  {60d3cf3a-8aa7-4eae-9e23-b30d97085971}, !- Name
  {947a3cc4-ba4e-4417-a0cd-2538738ada54}, !- HVAC Component
  {81ed38b3-3a71-4d62-b8cd-80e3f6505042}; !- Port 1

OS:PortList,
  {78dc54b3-92cb-438f-9198-4f93b6ca6e43}, !- Handle
  {75a63934-c953-43f6-b09c-5e08c3129078}, !- Name
  {947a3cc4-ba4e-4417-a0cd-2538738ada54}; !- HVAC Component

OS:PortList,
  {1953bebd-b9df-4aef-b1aa-519acb63dd19}, !- Handle
  {1a21fd07-48c2-4671-b25b-e38ce96bf777}, !- Name
  {947a3cc4-ba4e-4417-a0cd-2538738ada54}, !- HVAC Component
  {bb9478b5-a2e1-46ec-8a4c-d719b89c0acd}; !- Port 1

OS:Sizing:Zone,
  {68b16657-57ad-4046-94cb-3c14fe46c500}, !- Handle
  {947a3cc4-ba4e-4417-a0cd-2538738ada54}, !- Zone or ZoneList Name
  SupplyAirTemperature,                   !- Zone Cooling Design Supply Air Temperature Input Method
  12.7777777777778,                       !- Zone Cooling Design Supply Air Temperature {C}
  11.11,                                  !- Zone Cooling Design Supply Air Temperature Difference {deltaC}
  SupplyAirTemperature,                   !- Zone Heating Design Supply Air Temperature Input Method
  40.0000000000001,                       !- Zone Heating Design Supply Air Temperature {C}
  11.11,                                  !- Zone Heating Design Supply Air Temperature Difference {deltaC}
  0.0085,                                 !- Zone Cooling Design Supply Air Humidity Ratio {kg-H2O/kg-air}
  0.008,                                  !- Zone Heating Design Supply Air Humidity Ratio {kg-H2O/kg-air}
  ,                                       !- Zone Heating Sizing Factor
  ,                                       !- Zone Cooling Sizing Factor
  DesignDayWithLimit,                     !- Cooling Design Air Flow Method
  ,                                       !- Cooling Design Air Flow Rate {m3/s}
  ,                                       !- Cooling Minimum Air Flow per Zone Floor Area {m3/s-m2}
  ,                                       !- Cooling Minimum Air Flow {m3/s}
  ,                                       !- Cooling Minimum Air Flow Fraction
  DesignDay,                              !- Heating Design Air Flow Method
  ,                                       !- Heating Design Air Flow Rate {m3/s}
  ,                                       !- Heating Maximum Air Flow per Zone Floor Area {m3/s-m2}
  ,                                       !- Heating Maximum Air Flow {m3/s}
  ,                                       !- Heating Maximum Air Flow Fraction
  No,                                     !- Account for Dedicated Outdoor Air System
  NeutralSupplyAir,                       !- Dedicated Outdoor Air System Control Strategy
  autosize,                               !- Dedicated Outdoor Air Low Setpoint Temperature for Design {C}
  autosize;                               !- Dedicated Outdoor Air High Setpoint Temperature for Design {C}

OS:ZoneHVAC:EquipmentList,
  {b6700122-0742-43e9-96d0-d0784f6c857e}, !- Handle
  storey-1-zone-1 Zone HVAC Equipment List, !- Name
  {947a3cc4-ba4e-4417-a0cd-2538738ada54}, !- Thermal Zone
  ,                                       !- Load Distribution Scheme
  {133a12e5-4e8f-4cc6-9ad7-457a96ae1c00}, !- Zone Equipment 1
  1,                                      !- Zone Equipment Cooling Sequence 1
  1,                                      !- Zone Equipment Heating or No-Load Sequence 1
  ,                                       !- Zone Equipment Sequential Cooling Fraction Schedule Name 1
  ;                                       !- Zone Equipment Sequential Heating Fraction Schedule Name 1

OS:AdditionalProperties,
  {2e528d33-5533-405a-b1d0-9ddb845f42c2}, !- Handle
  {947a3cc4-ba4e-4417-a0cd-2538738ada54}, !- Object Name
  gbXMLId,                                !- Feature Name 1
  String,                                 !- Feature Data Type 1
  zone-1;                                 !- Feature Value 1

OS:ThermalZone,
  {70ab94bd-1ce7-48e0-baaa-80f1a3c4c8ba}, !- Handle
  storey-1-zone-2,                        !- Name
  ,                                       !- Multiplier
  ,                                       !- Ceiling Height {m}
  ,                                       !- Volume {m3}
  ,                                       !- Floor Area {m2}
  ,                                       !- Zone Inside Convection Algorithm
  ,                                       !- Zone Outside Convection Algorithm
  ,                                       !- Zone Conditioning Equipment List Name
  {98473635-c29a-4c24-b12f-a8eadce58ad9}, !- Zone Air Inlet Port List
  {28464bec-b6a9-40e8-9357-6f1a5bc09822}, !- Zone Air Exhaust Port List
  {36422526-7a18-47a5-9c52-69e67b300062}, !- Zone Air Node Name
  {6263cbdc-b66d-481d-ad41-157825cd4fcc}, !- Zone Return Air Port List
  ,                                       !- Primary Daylighting Control Name
  ,                                       !- Fraction of Zone Controlled by Primary Daylighting Control
  ,                                       !- Secondary Daylighting Control Name
  ,                                       !- Fraction of Zone Controlled by Secondary Daylighting Control
  ,                                       !- Illuminance Map Name
  ,                                       !- Group Rendering Name
  {a0cb4797-5160-4e72-aa6f-3577d7800aaa}, !- Thermostat Name
  No;                                     !- Use Ideal Air Loads

OS:Node,
  {67715038-b785-4aed-a5a9-e01239b9a886}, !- Handle
  storey-1-zone-2 Zone Air Node,          !- Name
  {36422526-7a18-47a5-9c52-69e67b300062}, !- Inlet Port
  ;                                       !- Outlet Port

OS:Connection,
  {36422526-7a18-47a5-9c52-69e67b300062}, !- Handle
  {0a52a88a-47dc-4c1f-8882-9586ebe104c9}, !- Name
  {70ab94bd-1ce7-48e0-baaa-80f1a3c4c8ba}, !- Source Object
  11,                                     !- Outlet Port
  {67715038-b785-4aed-a5a9-e01239b9a886}, !- Target Object
  2;                                      !- Inlet Port

OS:PortList,
  {98473635-c29a-4c24-b12f-a8eadce58ad9}, !- Handle
  {e43250af-f44b-4990-be6d-06cf920c8d48}, !- Name
  {70ab94bd-1ce7-48e0-baaa-80f1a3c4c8ba}, !- HVAC Component
  {df6977c2-6f59-4372-b339-ebecc1a93ac3}; !- Port 1

OS:PortList,
  {28464bec-b6a9-40e8-9357-6f1a5bc09822}, !- Handle
  {d080c215-18e5-4368-9130-d9ce6c1725f6}, !- Name
  {70ab94bd-1ce7-48e0-baaa-80f1a3c4c8ba}; !- HVAC Component

OS:PortList,
  {6263cbdc-b66d-481d-ad41-157825cd4fcc}, !- Handle
  {e8112236-5e9c-49b4-852c-a7d9ec13121e}, !- Name
  {70ab94bd-1ce7-48e0-baaa-80f1a3c4c8ba}, !- HVAC Component
  {fe0fc265-8fb3-4578-a06b-43fb7530b41e}; !- Port 1

OS:Sizing:Zone,
  {342924b0-d873-48ce-92b3-e19c58a5b565}, !- Handle
  {70ab94bd-1ce7-48e0-baaa-80f1a3c4c8ba}, !- Zone or ZoneList Name
  SupplyAirTemperature,                   !- Zone Cooling Design Supply Air Temperature Input Method
  12.7777777777778,                       !- Zone Cooling Design Supply Air Temperature {C}
  11.11,                                  !- Zone Cooling Design Supply Air Temperature Difference {deltaC}
  SupplyAirTemperature,                   !- Zone Heating Design Supply Air Temperature Input Method
  40.0000000000001,                       !- Zone Heating Design Supply Air Temperature {C}
  11.11,                                  !- Zone Heating Design Supply Air Temperature Difference {deltaC}
  0.0085,                                 !- Zone Cooling Design Supply Air Humidity Ratio {kg-H2O/kg-air}
  0.008,                                  !- Zone Heating Design Supply Air Humidity Ratio {kg-H2O/kg-air}
  ,                                       !- Zone Heating Sizing Factor
  ,                                       !- Zone Cooling Sizing Factor
  DesignDayWithLimit,                     !- Cooling Design Air Flow Method
  ,                                       !- Cooling Design Air Flow Rate {m3/s}
  ,                                       !- Cooling Minimum Air Flow per Zone Floor Area {m3/s-m2}
  ,                                       !- Cooling Minimum Air Flow {m3/s}
  ,                                       !- Cooling Minimum Air Flow Fraction
  DesignDay,                              !- Heating Design Air Flow Method
  ,                                       !- Heating Design Air Flow Rate {m3/s}
  ,                                       !- Heating Maximum Air Flow per Zone Floor Area {m3/s-m2}
  ,                                       !- Heating Maximum Air Flow {m3/s}
  ,                                       !- Heating Maximum Air Flow Fraction
  No,                                     !- Account for Dedicated Outdoor Air System
  NeutralSupplyAir,                       !- Dedicated Outdoor Air System Control Strategy
  autosize,                               !- Dedicated Outdoor Air Low Setpoint Temperature for Design {C}
  autosize;                               !- Dedicated Outdoor Air High Setpoint Temperature for Design {C}

OS:ZoneHVAC:EquipmentList,
  {caccb631-d27e-4b81-9c11-06a1c81b4c26}, !- Handle
  storey-1-zone-2 Zone HVAC Equipment List, !- Name
  {70ab94bd-1ce7-48e0-baaa-80f1a3c4c8ba}, !- Thermal Zone
  ,                                       !- Load Distribution Scheme
  {0fdf30a4-31d6-4475-bb92-8f8695e348a7}, !- Zone Equipment 1
  1,                                      !- Zone Equipment Cooling Sequence 1
  1,                                      !- Zone Equipment Heating or No-Load Sequence 1
  ,                                       !- Zone Equipment Sequential Cooling Fraction Schedule Name 1
  ;                                       !- Zone Equipment Sequential Heating Fraction Schedule Name 1

OS:AdditionalProperties,
  {98597f99-55ba-4a00-9067-cbf3049d7743}, !- Handle
  {70ab94bd-1ce7-48e0-baaa-80f1a3c4c8ba}, !- Object Name
  gbXMLId,                                !- Feature Name 1
  String,                                 !- Feature Data Type 1
  zone-2;                                 !- Feature Value 1

OS:ThermalZone,
  {1d759fac-dae2-4e75-9487-19b9bad98920}, !- Handle
  storey-1-zone-3,                        !- Name
  ,                                       !- Multiplier
  ,                                       !- Ceiling Height {m}
  ,                                       !- Volume {m3}
  ,                                       !- Floor Area {m2}
  ,                                       !- Zone Inside Convection Algorithm
  ,                                       !- Zone Outside Convection Algorithm
  ,                                       !- Zone Conditioning Equipment List Name
  {3fd593e4-3380-4bc3-b10c-6d1604bc7b0f}, !- Zone Air Inlet Port List
  {ceba93c9-7922-4813-868f-94f91b9c5277}, !- Zone Air Exhaust Port List
  {eb393e70-c683-4c98-9618-5608aef085f1}, !- Zone Air Node Name
  {df12c0bb-a7c8-4ce0-ac71-ca0426498cd1}, !- Zone Return Air Port List
  ,                                       !- Primary Daylighting Control Name
  ,                                       !- Fraction of Zone Controlled by Primary Daylighting Control
  ,                                       !- Secondary Daylighting Control Name
  ,                                       !- Fraction of Zone Controlled by Secondary Daylighting Control
  ,                                       !- Illuminance Map Name
  ,                                       !- Group Rendering Name
  {acba191a-eacd-4a14-936a-e3179ba106ca}, !- Thermostat Name
  No;                                     !- Use Ideal Air Loads

OS:Node,
  {01a6c82c-573e-4524-a3fe-207993a18461}, !- Handle
  storey-1-zone-3 Zone Air Node,          !- Name
  {eb393e70-c683-4c98-9618-5608aef085f1}, !- Inlet Port
  ;                                       !- Outlet Port

OS:Connection,
  {eb393e70-c683-4c98-9618-5608aef085f1}, !- Handle
  {d7d002dc-def4-4049-b96d-6c19114be298}, !- Name
  {1d759fac-dae2-4e75-9487-19b9bad98920}, !- Source Object
  11,                                     !- Outlet Port
  {01a6c82c-573e-4524-a3fe-207993a18461}, !- Target Object
  2;                                      !- Inlet Port

OS:PortList,
  {3fd593e4-3380-4bc3-b10c-6d1604bc7b0f}, !- Handle
  {208a9256-45b8-4810-bd86-f6e8202f21ee}, !- Name
  {1d759fac-dae2-4e75-9487-19b9bad98920}, !- HVAC Component
  {f6f27912-a1d5-4d1b-bec5-b9cf182fa3c4}; !- Port 1

OS:PortList,
  {ceba93c9-7922-4813-868f-94f91b9c5277}, !- Handle
  {bcef9fab-0241-4f31-8c36-60f9be0a37a8}, !- Name
  {1d759fac-dae2-4e75-9487-19b9bad98920}; !- HVAC Component

OS:PortList,
  {df12c0bb-a7c8-4ce0-ac71-ca0426498cd1}, !- Handle
  {a76d3fca-ddeb-45ec-b915-5402eef7123c}, !- Name
  {1d759fac-dae2-4e75-9487-19b9bad98920}, !- HVAC Component
  {22cfa117-2fa3-4a7f-a56c-096bdc59ba11}; !- Port 1

OS:Sizing:Zone,
  {cfcebd0d-0fac-48f1-918f-3db5a58c2acd}, !- Handle
  {1d759fac-dae2-4e75-9487-19b9bad98920}, !- Zone or ZoneList Name
  SupplyAirTemperature,                   !- Zone Cooling Design Supply Air Temperature Input Method
  12.7777777777778,                       !- Zone Cooling Design Supply Air Temperature {C}
  11.11,                                  !- Zone Cooling Design Supply Air Temperature Difference {deltaC}
  SupplyAirTemperature,                   !- Zone Heating Design Supply Air Temperature Input Method
  40.0000000000001,                       !- Zone Heating Design Supply Air Temperature {C}
  11.11,                                  !- Zone Heating Design Supply Air Temperature Difference {deltaC}
  0.0085,                                 !- Zone Cooling Design Supply Air Humidity Ratio {kg-H2O/kg-air}
  0.008,                                  !- Zone Heating Design Supply Air Humidity Ratio {kg-H2O/kg-air}
  ,                                       !- Zone Heating Sizing Factor
  ,                                       !- Zone Cooling Sizing Factor
  DesignDayWithLimit,                     !- Cooling Design Air Flow Method
  ,                                       !- Cooling Design Air Flow Rate {m3/s}
  ,                                       !- Cooling Minimum Air Flow per Zone Floor Area {m3/s-m2}
  ,                                       !- Cooling Minimum Air Flow {m3/s}
  ,                                       !- Cooling Minimum Air Flow Fraction
  DesignDay,                              !- Heating Design Air Flow Method
  ,                                       !- Heating Design Air Flow Rate {m3/s}
  ,                                       !- Heating Maximum Air Flow per Zone Floor Area {m3/s-m2}
  ,                                       !- Heating Maximum Air Flow {m3/s}
  ,                                       !- Heating Maximum Air Flow Fraction
  No,                                     !- Account for Dedicated Outdoor Air System
  NeutralSupplyAir,                       !- Dedicated Outdoor Air System Control Strategy
  autosize,                               !- Dedicated Outdoor Air Low Setpoint Temperature for Design {C}
  autosize;                               !- Dedicated Outdoor Air High Setpoint Temperature for Design {C}

OS:ZoneHVAC:EquipmentList,
  {335d74a6-6168-4e2b-a766-648a41e0d927}, !- Handle
  storey-1-zone-3 Zone HVAC Equipment List, !- Name
  {1d759fac-dae2-4e75-9487-19b9bad98920}, !- Thermal Zone
  ,                                       !- Load Distribution Scheme
  {e6b10de8-923a-47ea-89b1-fe704f5c48cb}, !- Zone Equipment 1
  1,                                      !- Zone Equipment Cooling Sequence 1
  1,                                      !- Zone Equipment Heating or No-Load Sequence 1
  ,                                       !- Zone Equipment Sequential Cooling Fraction Schedule Name 1
  ;                                       !- Zone Equipment Sequential Heating Fraction Schedule Name 1

OS:AdditionalProperties,
  {ddede8ed-83ac-4365-902a-c4d0dea02f18}, !- Handle
  {1d759fac-dae2-4e75-9487-19b9bad98920}, !- Object Name
  gbXMLId,                                !- Feature Name 1
  String,                                 !- Feature Data Type 1
  zone-3;                                 !- Feature Value 1

OS:ThermalZone,
  {e210dba5-8225-4ba9-b073-7f9e050a523c}, !- Handle
  storey-1-zone-4,                        !- Name
  ,                                       !- Multiplier
  ,                                       !- Ceiling Height {m}
  ,                                       !- Volume {m3}
  ,                                       !- Floor Area {m2}
  ,                                       !- Zone Inside Convection Algorithm
  ,                                       !- Zone Outside Convection Algorithm
  ,                                       !- Zone Conditioning Equipment List Name
  {4d12fdd7-bf70-4881-942b-54ca14aadb54}, !- Zone Air Inlet Port List
  {7bfcae8a-0af8-4544-b1c2-4dfca778a53c}, !- Zone Air Exhaust Port List
  {4d2433c5-9ea9-4b1c-bc74-ecd2d010b6a3}, !- Zone Air Node Name
  {04900761-5c0f-4400-8e32-368b27847572}, !- Zone Return Air Port List
  ,                                       !- Primary Daylighting Control Name
  ,                                       !- Fraction of Zone Controlled by Primary Daylighting Control
  ,                                       !- Secondary Daylighting Control Name
  ,                                       !- Fraction of Zone Controlled by Secondary Daylighting Control
  ,                                       !- Illuminance Map Name
  ,                                       !- Group Rendering Name
  {a0269c41-936a-4eca-97c6-cfbb79ec8e72}, !- Thermostat Name
  No;                                     !- Use Ideal Air Loads

OS:Node,
  {f848f482-62c0-4147-8df1-5d5bac845e86}, !- Handle
  storey-1-zone-4 Zone Air Node,          !- Name
  {4d2433c5-9ea9-4b1c-bc74-ecd2d010b6a3}, !- Inlet Port
  ;                                       !- Outlet Port

OS:Connection,
  {4d2433c5-9ea9-4b1c-bc74-ecd2d010b6a3}, !- Handle
  {7cd59a5d-4927-4a02-867b-7ec8c32d2d0c}, !- Name
  {e210dba5-8225-4ba9-b073-7f9e050a523c}, !- Source Object
  11,                                     !- Outlet Port
  {f848f482-62c0-4147-8df1-5d5bac845e86}, !- Target Object
  2;                                      !- Inlet Port

OS:PortList,
  {4d12fdd7-bf70-4881-942b-54ca14aadb54}, !- Handle
  {f9189c91-4bf6-4feb-a317-2798da3f6a24}, !- Name
  {e210dba5-8225-4ba9-b073-7f9e050a523c}, !- HVAC Component
  {c5663478-bf95-4dd7-8a28-590a826cb465}; !- Port 1

OS:PortList,
  {7bfcae8a-0af8-4544-b1c2-4dfca778a53c}, !- Handle
  {2a2f6878-781f-40cf-a1b6-9434ede90dae}, !- Name
  {e210dba5-8225-4ba9-b073-7f9e050a523c}; !- HVAC Component

OS:PortList,
  {04900761-5c0f-4400-8e32-368b27847572}, !- Handle
  {91a8f8e5-724b-4dee-bfe6-f2c8454cf6f8}, !- Name
  {e210dba5-8225-4ba9-b073-7f9e050a523c}, !- HVAC Component
  {dc4ad494-37a8-4555-97e2-06b6ec0176b4}; !- Port 1

OS:Sizing:Zone,
  {4c71cffc-24cb-4d25-9c63-9bf264700201}, !- Handle
  {e210dba5-8225-4ba9-b073-7f9e050a523c}, !- Zone or ZoneList Name
  SupplyAirTemperature,                   !- Zone Cooling Design Supply Air Temperature Input Method
  12.7777777777778,                       !- Zone Cooling Design Supply Air Temperature {C}
  11.11,                                  !- Zone Cooling Design Supply Air Temperature Difference {deltaC}
  SupplyAirTemperature,                   !- Zone Heating Design Supply Air Temperature Input Method
  40.0000000000001,                       !- Zone Heating Design Supply Air Temperature {C}
  11.11,                                  !- Zone Heating Design Supply Air Temperature Difference {deltaC}
  0.0085,                                 !- Zone Cooling Design Supply Air Humidity Ratio {kg-H2O/kg-air}
  0.008,                                  !- Zone Heating Design Supply Air Humidity Ratio {kg-H2O/kg-air}
  ,                                       !- Zone Heating Sizing Factor
  ,                                       !- Zone Cooling Sizing Factor
  DesignDayWithLimit,                     !- Cooling Design Air Flow Method
  ,                                       !- Cooling Design Air Flow Rate {m3/s}
  ,                                       !- Cooling Minimum Air Flow per Zone Floor Area {m3/s-m2}
  ,                                       !- Cooling Minimum Air Flow {m3/s}
  ,                                       !- Cooling Minimum Air Flow Fraction
  DesignDay,                              !- Heating Design Air Flow Method
  ,                                       !- Heating Design Air Flow Rate {m3/s}
  ,                                       !- Heating Maximum Air Flow per Zone Floor Area {m3/s-m2}
  ,                                       !- Heating Maximum Air Flow {m3/s}
  ,                                       !- Heating Maximum Air Flow Fraction
  No,                                     !- Account for Dedicated Outdoor Air System
  NeutralSupplyAir,                       !- Dedicated Outdoor Air System Control Strategy
  autosize,                               !- Dedicated Outdoor Air Low Setpoint Temperature for Design {C}
  autosize;                               !- Dedicated Outdoor Air High Setpoint Temperature for Design {C}

OS:ZoneHVAC:EquipmentList,
  {641acd7f-67c3-412a-a2ed-6f04a3f2c99d}, !- Handle
  storey-1-zone-4 Zone HVAC Equipment List, !- Name
  {e210dba5-8225-4ba9-b073-7f9e050a523c}, !- Thermal Zone
  ,                                       !- Load Distribution Scheme
  {a6a7e675-c79a-419b-b19a-3bbdc606caec}, !- Zone Equipment 1
  1,                                      !- Zone Equipment Cooling Sequence 1
  1,                                      !- Zone Equipment Heating or No-Load Sequence 1
  ,                                       !- Zone Equipment Sequential Cooling Fraction Schedule Name 1
  ;                                       !- Zone Equipment Sequential Heating Fraction Schedule Name 1

OS:AdditionalProperties,
  {e20b564a-3ba9-4ada-a51a-fdceeb62df2c}, !- Handle
  {e210dba5-8225-4ba9-b073-7f9e050a523c}, !- Object Name
  gbXMLId,                                !- Feature Name 1
  String,                                 !- Feature Data Type 1
  zone-4;                                 !- Feature Value 1

OS:ThermalZone,
  {f127d46d-0224-40d7-a3fe-df0284288901}, !- Handle
  storey-1-zone-5,                        !- Name
  ,                                       !- Multiplier
  ,                                       !- Ceiling Height {m}
  ,                                       !- Volume {m3}
  ,                                       !- Floor Area {m2}
  ,                                       !- Zone Inside Convection Algorithm
  ,                                       !- Zone Outside Convection Algorithm
  ,                                       !- Zone Conditioning Equipment List Name
  {64e19129-dbc2-4550-9a88-0417fd7f42ba}, !- Zone Air Inlet Port List
  {98216da1-bc4b-4ef4-9e51-13a2350c6a0c}, !- Zone Air Exhaust Port List
  {546afdce-e0ef-4768-822a-5b5f2c5f58b6}, !- Zone Air Node Name
  {e50845de-8633-412b-a0f9-c2c2efb97525}, !- Zone Return Air Port List
  ,                                       !- Primary Daylighting Control Name
  ,                                       !- Fraction of Zone Controlled by Primary Daylighting Control
  ,                                       !- Secondary Daylighting Control Name
  ,                                       !- Fraction of Zone Controlled by Secondary Daylighting Control
  ,                                       !- Illuminance Map Name
  ,                                       !- Group Rendering Name
  {bc4b9bc5-0287-44ff-9d26-28dd8dccb074}, !- Thermostat Name
  No;                                     !- Use Ideal Air Loads

OS:Node,
  {a77db83f-47ef-4e0c-9bea-e6cad14d0bf7}, !- Handle
  storey-1-zone-5 Zone Air Node,          !- Name
  {546afdce-e0ef-4768-822a-5b5f2c5f58b6}, !- Inlet Port
  ;                                       !- Outlet Port

OS:Connection,
  {546afdce-e0ef-4768-822a-5b5f2c5f58b6}, !- Handle
  {68c47843-aa2e-48ef-9980-0e4376b67841}, !- Name
  {f127d46d-0224-40d7-a3fe-df0284288901}, !- Source Object
  11,                                     !- Outlet Port
  {a77db83f-47ef-4e0c-9bea-e6cad14d0bf7}, !- Target Object
  2;                                      !- Inlet Port

OS:PortList,
  {64e19129-dbc2-4550-9a88-0417fd7f42ba}, !- Handle
  {0839c9b5-0689-4eda-a4ec-dea540ef26a9}, !- Name
  {f127d46d-0224-40d7-a3fe-df0284288901}, !- HVAC Component
  {602859e8-6087-4e8b-b07f-738cbc8576f3}; !- Port 1

OS:PortList,
  {98216da1-bc4b-4ef4-9e51-13a2350c6a0c}, !- Handle
  {67000796-4d16-4ddb-9f38-df69464f24f8}, !- Name
  {f127d46d-0224-40d7-a3fe-df0284288901}; !- HVAC Component

OS:PortList,
  {e50845de-8633-412b-a0f9-c2c2efb97525}, !- Handle
  {c944f88c-474b-4f63-904d-380673959e34}, !- Name
  {f127d46d-0224-40d7-a3fe-df0284288901}, !- HVAC Component
  {384d365e-a2d2-4633-8535-75c8b401e06b}; !- Port 1

OS:Sizing:Zone,
  {afbd3f61-8d1a-4fb0-bf56-66a671c1e598}, !- Handle
  {f127d46d-0224-40d7-a3fe-df0284288901}, !- Zone or ZoneList Name
  SupplyAirTemperature,                   !- Zone Cooling Design Supply Air Temperature Input Method
  12.7777777777778,                       !- Zone Cooling Design Supply Air Temperature {C}
  11.11,                                  !- Zone Cooling Design Supply Air Temperature Difference {deltaC}
  SupplyAirTemperature,                   !- Zone Heating Design Supply Air Temperature Input Method
  40.0000000000001,                       !- Zone Heating Design Supply Air Temperature {C}
  11.11,                                  !- Zone Heating Design Supply Air Temperature Difference {deltaC}
  0.0085,                                 !- Zone Cooling Design Supply Air Humidity Ratio {kg-H2O/kg-air}
  0.008,                                  !- Zone Heating Design Supply Air Humidity Ratio {kg-H2O/kg-air}
  ,                                       !- Zone Heating Sizing Factor
  ,                                       !- Zone Cooling Sizing Factor
  DesignDayWithLimit,                     !- Cooling Design Air Flow Method
  ,                                       !- Cooling Design Air Flow Rate {m3/s}
  ,                                       !- Cooling Minimum Air Flow per Zone Floor Area {m3/s-m2}
  ,                                       !- Cooling Minimum Air Flow {m3/s}
  ,                                       !- Cooling Minimum Air Flow Fraction
  DesignDay,                              !- Heating Design Air Flow Method
  ,                                       !- Heating Design Air Flow Rate {m3/s}
  ,                                       !- Heating Maximum Air Flow per Zone Floor Area {m3/s-m2}
  ,                                       !- Heating Maximum Air Flow {m3/s}
  ,                                       !- Heating Maximum Air Flow Fraction
  No,                                     !- Account for Dedicated Outdoor Air System
  NeutralSupplyAir,                       !- Dedicated Outdoor Air System Control Strategy
  autosize,                               !- Dedicated Outdoor Air Low Setpoint Temperature for Design {C}
  autosize;                               !- Dedicated Outdoor Air High Setpoint Temperature for Design {C}

OS:ZoneHVAC:EquipmentList,
  {a5629859-1930-4630-8649-4cd7a183b589}, !- Handle
  storey-1-zone-5 Zone HVAC Equipment List, !- Name
  {f127d46d-0224-40d7-a3fe-df0284288901}, !- Thermal Zone
  ,                                       !- Load Distribution Scheme
  {7a352ef8-dd51-4c93-8b4f-ad207d38c840}, !- Zone Equipment 1
  1,                                      !- Zone Equipment Cooling Sequence 1
  1,                                      !- Zone Equipment Heating or No-Load Sequence 1
  ,                                       !- Zone Equipment Sequential Cooling Fraction Schedule Name 1