
OS:Version,
  {4e3a3dcc-3c1c-4630-9309-4b3e13542473}, !- Handle
  1.10.0;                                 !- Version Identifier

OS:Site,
  {7899bf7c-aa6b-4a32-b53e-5632efd08192}, !- Handle
  Camp Mabry,                             !- Name
  30.32,                                  !- Latitude {deg}
  -97.77,                                 !- Longitude {deg}
  -6,                                     !- Time Zone {hr}
  198,                                    !- Elevation {m}
  ;                                       !- Terrain

OS:YearDescription,
  {72846b4d-c3bf-43a1-a564-8917a4de94b2}, !- Handle
  ,                                       !- Calendar Year
  Sunday;                                 !- Day of Week for Start Day

OS:ClimateZones,
  {09848a45-3eeb-4a4e-bd01-8a8d5bca71db}, !- Handle
  ,                                       !- Active Institution
  ,                                       !- Active Year
  ASHRAE,                                 !- Climate Zone Institution Name 1
  ANSI/ASHRAE Standard 169,               !- Climate Zone Document Name 1
  2006,                                   !- Climate Zone Document Year 1
  4C,                                     !- Climate Zone Value 1
  CEC,                                    !- Climate Zone Institution Name 2
  California Climate Zone Descriptions,   !- Climate Zone Document Name 2
  1995,                                   !- Climate Zone Document Year 2
  ;                                       !- Climate Zone Value 2

OS:Building,
  {cceba0e7-c093-4ec5-a6d1-95266af488c9}, !- Handle
  Building 1,                             !- Name
  ,                                       !- Building Sector Type
  ,                                       !- North Axis {deg}
  ,                                       !- Nominal Floor to Floor Height {m}
  {7291ad12-ae17-44a0-86c6-12ff56e14d15}, !- Space Type Name
  {784b123b-3950-4563-ac1f-32ce44701a98}, !- Default Construction Set Name
  ,                                       !- Default Schedule Set Name
  ,                                       !- Standards Number of Stories
  ,                                       !- Standards Number of Above Ground Stories
  Office;                                 !- Standards Building Type

OS:Facility,
  {0d273dce-df7b-4036-be76-2f5b6362a60a}; !- Handle

OS:LifeCycleCost:Parameters,
  {f370ad7b-ad7f-47f4-b934-8600b9a1812a}, !- Handle
  ,                                       !- Analysis Type
  ,                                       !- Discounting Convention
  ,                                       !- Inflation Approach
  ,                                       !- Real Discount Rate
  ,                                       !- Nominal Discount Rate
  ,                                       !- Inflation
  ,                                       !- Base Date Month
  ,                                       !- Base Date Year
  ,                                       !- Service Date Month
  ,                                       !- Service Date Year
  ;                                       !- Length of Study Period in Years

OS:BuildingStory,
  {964dc9b9-cc52-40a0-86be-f69779ee8f57}, !- Handle
  Story 1,                                !- Name
  0,                                      !- Nominal Z Coordinate {m}
  3.048,                                  !- Nominal Floor to Floor Height {m}
  ,                                       !- Default Construction Set Name
  ,                                       !- Default Schedule Set Name
  ;                                       !- Group Rendering Name

OS:Space,
  {cde71f02-9183-4b63-b536-36934a6c9ffe}, !- Handle
  Story 1 West Perimeter Space,           !- Name
  ,                                       !- Space Type Name
  ,                                       !- Default Construction Set Name
  ,                                       !- Default Schedule Set Name
  -0,                                     !- Direction of Relative North {deg}
  0,                                      !- X Origin {m}
  0,                                      !- Y Origin {m}
  0,                                      !- Z Origin {m}
  {964dc9b9-cc52-40a0-86be-f69779ee8f57}, !- Building Story Name
  {eccab2d6-289b-47f9-9974-72c81dc3762f}; !- Thermal Zone Name

OS:Surface,
  {0bd9e749-858a-41cc-974f-86aa4cdfd8af}, !- Handle
  Surface 1,                              !- Name
  Floor,                                  !- Surface Type
  ,                                       !- Construction Name
  {cde71f02-9183-4b63-b536-36934a6c9ffe}, !- Space Name
  Ground,                                 !- Outside Boundary Condition
  ,                                       !- Outside Boundary Condition Object
  NoSun,                                  !- Sun Exposure
  NoWind,                                 !- Wind Exposure
  ,                                       !- View Factor to Ground
  ,                                       !- Number of Vertices
  0, 0, 0,                                !- X,Y,Z Vertex 1 {m}
  0, 15.24, 0,                            !- X,Y,Z Vertex 2 {m}
  4.57, 10.67, 0,                         !- X,Y,Z Vertex 3 {m}
  4.57, 4.57, 0;                          !- X,Y,Z Vertex 4 {m}

OS:Surface,
  {b6a55ff5-3ffe-4c3e-bc4f-b5eda52b088b}, !- Handle
  Surface 2,                              !- Name
  Wall,                                   !- Surface Type
  ,                                       !- Construction Name
  {cde71f02-9183-4b63-b536-36934a6c9ffe}, !- Space Name
  Outdoors,                               !- Outside Boundary Condition
  ,                                       !- Outside Boundary Condition Object
  SunExposed,                             !- Sun Exposure
  WindExposed,                            !- Wind Exposure
  ,                                       !- View Factor to Ground
  ,                                       !- Number of Vertices
  0, 15.24, 3.048,                        !- X,Y,Z Vertex 1 {m}
  0, 15.24, 0,                            !- X,Y,Z Vertex 2 {m}
  0, 0, 0,                                !- X,Y,Z Vertex 3 {m}
  0, 0, 3.048;                            !- X,Y,Z Vertex 4 {m}

OS:Surface,
  {524b272d-470e-4992-9f0c-f4de4f2be378}, !- Handle
  Surface 3,                              !- Name
  Wall,                                   !- Surface Type
  ,                                       !- Construction Name
  {cde71f02-9183-4b63-b536-36934a6c9ffe}, !- Space Name
  Surface,                                !- Outside Boundary Condition
  {cfbe3dc3-bccd-48f9-a7ed-0c64b8909959}, !- Outside Boundary Condition Object
  NoSun,                                  !- Sun Exposure
  NoWind,                                 !- Wind Exposure
  ,                                       !- View Factor to Ground
  ,                                       !- Number of Vertices
  4.57, 10.67, 3.048,                     !- X,Y,Z Vertex 1 {m}
  4.57, 10.67, 0,                         !- X,Y,Z Vertex 2 {m}
  0, 15.24, 0,                            !- X,Y,Z Vertex 3 {m}
  0, 15.24, 3.048;                        !- X,Y,Z Vertex 4 {m}

OS:Surface,
  {9a77e81a-7c81-44e3-9119-484f2935aaf2}, !- Handle
  Surface 4,                              !- Name
  Wall,                                   !- Surface Type
  ,                                       !- Construction Name
  {cde71f02-9183-4b63-b536-36934a6c9ffe}, !- Space Name
  Surface,                                !- Outside Boundary Condition
  {bcb415fc-23bc-426f-bab0-e98f65aa5c17}, !- Outside Boundary Condition Object
  NoSun,                                  !- Sun Exposure
  NoWind,                                 !- Wind Exposure
  ,                                       !- View Factor to Ground
  ,                                       !- Number of Vertices
  4.57, 4.57, 3.048,                      !- X,Y,Z Vertex 1 {m}
  4.57, 4.57, 0,                          !- X,Y,Z Vertex 2 {m}
  4.57, 10.67, 0,                         !- X,Y,Z Vertex 3 {m}
  4.57, 10.67, 3.048;                     !- X,Y,Z Vertex 4 {m}

OS:Surface,
  {1f5152a2-460c-430f-a60d-3a8fe4891856}, !- Handle
  Surface 5,                              !- Name
  Wall,                                   !- Surface Type
  ,                                       !- Construction Name
  {cde71f02-9183-4b63-b536-36934a6c9ffe}, !- Space Name
  Surface,                                !- Outside Boundary Condition
  {ec8e30df-26e1-42ef-9f7b-25a2a507c6c0}, !- Outside Boundary Condition Object
  NoSun,                                  !- Sun Exposure
  NoWind,                                 !- Wind Exposure
  ,                                       !- View Factor to Ground
  ,                                       !- Number of Vertices
  0, 0, 3.048,                            !- X,Y,Z Vertex 1 {m}
  0, 0, 0,                                !- X,Y,Z Vertex 2 {m}
  4.57, 4.57, 0,                          !- X,Y,Z Vertex 3 {m}
  4.57, 4.57, 3.048;                      !- X,Y,Z Vertex 4 {m}

OS:Surface,
  {5498da22-6261-436a-ba62-0ea6450113f2}, !- Handle
  Surface 6,                              !- Name
  RoofCeiling,                            !- Surface Type
  ,                                       !- Construction Name
  {cde71f02-9183-4b63-b536-36934a6c9ffe}, !- Space Name
  Surface,                                !- Outside Boundary Condition
  {7115302d-0329-4c34-9d30-6b7a29f7405c}, !- Outside Boundary Condition Object
  NoSun,                                  !- Sun Exposure
  NoWind,                                 !- Wind Exposure
  ,                                       !- View Factor to Ground
  ,                                       !- Number of Vertices
  4.57, 4.57, 3.048,                      !- X,Y,Z Vertex 1 {m}
  4.57, 10.67, 3.048,                     !- X,Y,Z Vertex 2 {m}
  0, 15.24, 3.048,                        !- X,Y,Z Vertex 3 {m}
  0, 0, 3.048;                            !- X,Y,Z Vertex 4 {m}

OS:Space,
  {e6ea9d8d-0af4-4d4f-8caa-d2dee1ed0536}, !- Handle
  Story 1 North Perimeter Space,          !- Name
  ,                                       !- Space Type Name
  ,                                       !- Default Construction Set Name
  ,                                       !- Default Schedule Set Name
  -0,                                     !- Direction of Relative North {deg}
  4.57,                                   !- X Origin {m}
  10.67,                                  !- Y Origin {m}
  0,                                      !- Z Origin {m}
  {964dc9b9-cc52-40a0-86be-f69779ee8f57}, !- Building Story Name
  {504fed77-e339-479e-b689-f0eac66129f3}; !- Thermal Zone Name

OS:Surface,
  {be890465-4a8d-4646-a697-79e18a15f62a}, !- Handle
  Surface 7,                              !- Name
  Floor,                                  !- Surface Type
  ,                                       !- Construction Name
  {e6ea9d8d-0af4-4d4f-8caa-d2dee1ed0536}, !- Space Name
  Ground,                                 !- Outside Boundary Condition
  ,                                       !- Outside Boundary Condition Object
  NoSun,                                  !- Sun Exposure
  NoWind,                                 !- Wind Exposure
  ,                                       !- View Factor to Ground
  ,                                       !- Number of Vertices
  -4.57, 4.57, 0,                         !- X,Y,Z Vertex 1 {m}
  25.91, 4.57, 0,                         !- X,Y,Z Vertex 2 {m}
  21.34, 0, 0,                            !- X,Y,Z Vertex 3 {m}
  0, 0, 0;                                !- X,Y,Z Vertex 4 {m}

OS:Surface,
  {0e769390-4df6-4533-84a6-ec8d1925f93f}, !- Handle
  Surface 8,                              !- Name
  Wall,                                   !- Surface Type
  ,                                       !- Construction Name
  {e6ea9d8d-0af4-4d4f-8caa-d2dee1ed0536}, !- Space Name
  Outdoors,                               !- Outside Boundary Condition
  ,                                       !- Outside Boundary Condition Object
  SunExposed,                             !- Sun Exposure
  WindExposed,                            !- Wind Exposure
  ,                                       !- View Factor to Ground
  ,                                       !- Number of Vertices
  25.91, 4.57, 3.048,                     !- X,Y,Z Vertex 1 {m}
  25.91, 4.57, 0,                         !- X,Y,Z Vertex 2 {m}
  -4.57, 4.57, 0,                         !- X,Y,Z Vertex 3 {m}
  -4.57, 4.57, 3.048;                     !- X,Y,Z Vertex 4 {m}

OS:Surface,
  {9fba9f1b-ac4a-4c08-a9f9-ede2f1488e87}, !- Handle
  Surface 9,                              !- Name
  Wall,                                   !- Surface Type
  ,                                       !- Construction Name
  {e6ea9d8d-0af4-4d4f-8caa-d2dee1ed0536}, !- Space Name
  Surface,                                !- Outside Boundary Condition
  {35579e8e-1a58-4caa-b001-85fb7e90d7ba}, !- Outside Boundary Condition Object
  NoSun,                                  !- Sun Exposure
  NoWind,                                 !- Wind Exposure
  ,                                       !- View Factor to Ground
  ,                                       !- Number of Vertices
  21.34, 0, 3.048,                        !- X,Y,Z Vertex 1 {m}
  21.34, 0, 0,                            !- X,Y,Z Vertex 2 {m}
  25.91, 4.57, 0,                         !- X,Y,Z Vertex 3 {m}
  25.91, 4.57, 3.048;                     !- X,Y,Z Vertex 4 {m}

OS:Surface,
  {2b6da190-9fbe-440b-95ed-16b0207958a9}, !- Handle
  Surface 10,                             !- Name
  Wall,                                   !- Surface Type
  ,                                       !- Construction Name
  {e6ea9d8d-0af4-4d4f-8caa-d2dee1ed0536}, !- Space Name
  Surface,                                !- Outside Boundary Condition
  {1c60a013-0c9b-4395-950e-8540f83e9751}, !- Outside Boundary Condition Object
  NoSun,                                  !- Sun Exposure
  NoWind,                                 !- Wind Exposure
  ,                                       !- View Factor to Ground
  ,                                       !- Number of Vertices
  0, 0, 3.048,                            !- X,Y,Z Vertex 1 {m}
  0, 0, 0,                                !- X,Y,Z Vertex 2 {m}
  21.34, 0, 0,                            !- X,Y,Z Vertex 3 {m}
  21.34, 0, 3.048;                        !- X,Y,Z Vertex 4 {m}

OS:Surface,
  {cfbe3dc3-bccd-48f9-a7ed-0c64b8909959}, !- Handle
  Surface 11,                             !- Name
  Wall,                                   !- Surface Type
  ,                                       !- Construction Name
  {e6ea9d8d-0af4-4d4f-8caa-d2dee1ed0536}, !- Space Name
  Surface,                                !- Outside Boundary Condition
  {524b272d-470e-4992-9f0c-f4de4f2be378}, !- Outside Boundary Condition Object
  NoSun,                                  !- Sun Exposure
  NoWind,                                 !- Wind Exposure
  ,                                       !- View Factor to Ground
  ,                                       !- Number of Vertices
  -4.57, 4.57, 3.048,                     !- X,Y,Z Vertex 1 {m}
  -4.57, 4.57, 0,                         !- X,Y,Z Vertex 2 {m}
  0, 0, 0,                                !- X,Y,Z Vertex 3 {m}
  0, 0, 3.048;                            !- X,Y,Z Vertex 4 {m}

OS:Surface,
  {82d7826f-a518-4455-8aeb-444896535666}, !- Handle
  Surface 12,                             !- Name
  RoofCeiling,                            !- Surface Type
  ,                                       !- Construction Name
  {e6ea9d8d-0af4-4d4f-8caa-d2dee1ed0536}, !- Space Name
  Surface,                                !- Outside Boundary Condition
  {7d5209c7-f2bb-4d33-a64e-98d4badd6dd9}, !- Outside Boundary Condition Object
  NoSun,                                  !- Sun Exposure
  NoWind,                                 !- Wind Exposure
  ,                                       !- View Factor to Ground
  ,                                       !- Number of Vertices
  0, 0, 3.048,                            !- X,Y,Z Vertex 1 {m}
  21.34, 0, 3.048,                        !- X,Y,Z Vertex 2 {m}
  25.91, 4.57, 3.048,                     !- X,Y,Z Vertex 3 {m}
  -4.57, 4.57, 3.048;                     !- X,Y,Z Vertex 4 {m}

OS:Space,
  {24bfb346-34b7-41c6-8ee4-82da0535dbf5}, !- Handle
  Story 1 East Perimeter Space,           !- Name
  ,                                       !- Space Type Name
  ,                                       !- Default Construction Set Name
  ,                                       !- Default Schedule Set Name
  -0,                                     !- Direction of Relative North {deg}
  25.91,                                  !- X Origin {m}
  4.57,                                   !- Y Origin {m}
  0,                                      !- Z Origin {m}
  {964dc9b9-cc52-40a0-86be-f69779ee8f57}, !- Building Story Name
  {dd64db7c-55f6-40b6-a54d-3885d69ba948}; !- Thermal Zone Name

OS:Surface,
  {ed8c0e74-d711-4541-ac59-aefaa1b0392c}, !- Handle
  Surface 13,                             !- Name
  Floor,                                  !- Surface Type
  ,                                       !- Construction Name
  {24bfb346-34b7-41c6-8ee4-82da0535dbf5}, !- Space Name
  Ground,                                 !- Outside Boundary Condition
  ,                                       !- Outside Boundary Condition Object
  NoSun,                                  !- Sun Exposure
  NoWind,                                 !- Wind Exposure
  ,                                       !- View Factor to Ground
  ,                                       !- Number of Vertices
  4.57, 10.67, 0,                         !- X,Y,Z Vertex 1 {m}
  4.57, -4.57, 0,                         !- X,Y,Z Vertex 2 {m}
  -3.5527136788005e-15, 0, 0,             !- X,Y,Z Vertex 3 {m}
  -3.5527136788005e-15, 6.1, 0;           !- X,Y,Z Vertex 4 {m}

OS:Surface,
  {1a7063b8-0f7b-4538-b561-6ee899c5d373}, !- Handle
  Surface 14,                             !- Name
  Wall,                                   !- Surface Type
  ,                                       !- Construction Name
  {24bfb346-34b7-41c6-8ee4-82da0535dbf5}, !- Space Name
  Outdoors,                               !- Outside Boundary Condition
  ,                                       !- Outside Boundary Condition Object
  SunExposed,                             !- Sun Exposure
  WindExposed,                            !- Wind Exposure
  ,                                       !- View Factor to Ground
  ,                                       !- Number of Vertices
  4.57, -4.57, 3.048,                     !- X,Y,Z Vertex 1 {m}
  4.57, -4.57, 0,                         !- X,Y,Z Vertex 2 {m}
  4.57, 10.67, 0,                         !- X,Y,Z Vertex 3 {m}
  4.57, 10.67, 3.048;                     !- X,Y,Z Vertex 4 {m}

OS:Surface,
  {ff7ae61c-a880-4801-b551-3b11874942a9}, !- Handle
  Surface 15,                             !- Name
  Wall,                                   !- Surface Type
  ,                                       !- Construction Name
  {24bfb346-34b7-41c6-8ee4-82da0535dbf5}, !- Space Name
  Surface,                                !- Outside Boundary Condition
  {bc2c1cf1-1f79-4713-a5e5-b65e34218e8c}, !- Outside Boundary Condition Object
  NoSun,                                  !- Sun Exposure
  NoWind,                                 !- Wind Exposure
  ,                                       !- View Factor to Ground
  ,                                       !- Number of Vertices
  -3.5527136788005e-15, 0, 3.048,         !- X,Y,Z Vertex 1 {m}
  -3.5527136788005e-15, 0, 0,             !- X,Y,Z Vertex 2 {m}
  4.57, -4.57, 0,                         !- X,Y,Z Vertex 3 {m}
  4.57, -4.57, 3.048;                     !- X,Y,Z Vertex 4 {m}

OS:Surface,
  {ee1f90df-3021-4908-929c-be4f1f26275a}, !- Handle
  Surface 16,                             !- Name
  Wall,                                   !- Surface Type
  ,                                       !- Construction Name
  {24bfb346-34b7-41c6-8ee4-82da0535dbf5}, !- Space Name
  Surface,                                !- Outside Boundary Condition
  {9b090b77-0def-439f-b53f-083ff18ee4ea}, !- Outside Boundary Condition Object
  NoSun,                                  !- Sun Exposure
  NoWind,                                 !- Wind Exposure
  ,                                       !- View Factor to Ground
  ,                                       !- Number of Vertices
  -3.5527136788005e-15, 6.1, 3.048,       !- X,Y,Z Vertex 1 {m}
  -3.5527136788005e-15, 6.1, 0,           !- X,Y,Z Vertex 2 {m}
  -3.5527136788005e-15, 0, 0,             !- X,Y,Z Vertex 3 {m}
  -3.5527136788005e-15, 0, 3.048;         !- X,Y,Z Vertex 4 {m}

OS:Surface,
  {35579e8e-1a58-4caa-b001-85fb7e90d7ba}, !- Handle
  Surface 17,                             !- Name
  Wall,                                   !- Surface Type
  ,                                       !- Construction Name
  {24bfb346-34b7-41c6-8ee4-82da0535dbf5}, !- Space Name
  Surface,                                !- Outside Boundary Condition
  {9fba9f1b-ac4a-4c08-a9f9-ede2f1488e87}, !- Outside Boundary Condition Object
  NoSun,                                  !- Sun Exposure
  NoWind,                                 !- Wind Exposure
  ,                                       !- View Factor to Ground
  ,                                       !- Number of Vertices
  4.57, 10.67, 3.048,                     !- X,Y,Z Vertex 1 {m}
  4.57, 10.67, 0,                         !- X,Y,Z Vertex 2 {m}
  -3.5527136788005e-15, 6.1, 0,           !- X,Y,Z Vertex 3 {m}
  -3.5527136788005e-15, 6.1, 3.048;       !- X,Y,Z Vertex 4 {m}

OS:Surface,
  {ce8a2702-e825-42b7-b512-739f4c089689}, !- Handle
  Surface 18,                             !- Name
  RoofCeiling,                            !- Surface Type
  ,                                       !- Construction Name
  {24bfb346-34b7-41c6-8ee4-82da0535dbf5}, !- Space Name
  Surface,                                !- Outside Boundary Condition
  {c161c883-7f2c-4d33-a0a5-02f27a30a0b1}, !- Outside Boundary Condition Object
  NoSun,                                  !- Sun Exposure
  NoWind,                                 !- Wind Exposure
  ,                                       !- View Factor to Ground
  ,                                       !- Number of Vertices
  -3.5527136788005e-15, 6.1, 3.048,       !- X,Y,Z Vertex 1 {m}
  -3.5527136788005e-15, 0, 3.048,         !- X,Y,Z Vertex 2 {m}
  4.57, -4.57, 3.048,                     !- X,Y,Z Vertex 3 {m}
  4.57, 10.67, 3.048;                     !- X,Y,Z Vertex 4 {m}

OS:Space,
  {7222f09c-531f-486e-80e3-f57d200d55ce}, !- Handle
  Story 1 South Perimeter Space,          !- Name
  ,                                       !- Space Type Name
  ,                                       !- Default Construction Set Name
  ,                                       !- Default Schedule Set Name
  -0,                                     !- Direction of Relative North {deg}
  0,                                      !- X Origin {m}
  0,                                      !- Y Origin {m}
  0,                                      !- Z Origin {m}
  {964dc9b9-cc52-40a0-86be-f69779ee8f57}, !- Building Story Name
  {6a02e189-6097-4ce7-8031-fbd74b1c00e3}; !- Thermal Zone Name

OS:Surface,
  {9f6ba894-4bfc-4606-87d4-92b12c0f5ad2}, !- Handle
  Surface 19,                             !- Name
  Floor,                                  !- Surface Type
  ,                                       !- Construction Name
  {7222f09c-531f-486e-80e3-f57d200d55ce}, !- Space Name
  Ground,                                 !- Outside Boundary Condition
  ,                                       !- Outside Boundary Condition Object
  NoSun,                                  !- Sun Exposure
  NoWind,                                 !- Wind Exposure
  ,                                       !- View Factor to Ground
  ,                                       !- Number of Vertices
  30.48, 0, 0,                            !- X,Y,Z Vertex 1 {m}
  0, 0, 0,                                !- X,Y,Z Vertex 2 {m}
  4.57, 4.57, 0,                          !- X,Y,Z Vertex 3 {m}
  25.91, 4.57, 0;                         !- X,Y,Z Vertex 4 {m}

OS:Surface,
  {585b5687-e910-4fa1-a634-1fac139172c7}, !- Handle
  Surface 20,                             !- Name
  Wall,                                   !- Surface Type
  ,                                       !- Construction Name
  {7222f09c-531f-486e-80e3-f57d200d55ce}, !- Space Name
  Outdoors,                               !- Outside Boundary Condition
  ,                                       !- Outside Boundary Condition Object
  SunExposed,                             !- Sun Exposure
  WindExposed,                            !- Wind Exposure
  ,                                       !- View Factor to Ground
  ,                                       !- Number of Vertices
  0, 0, 3.048,                            !- X,Y,Z Vertex 1 {m}
  0, 0, 0,                                !- X,Y,Z Vertex 2 {m}
  30.48, 0, 0,                            !- X,Y,Z Vertex 3 {m}
  30.48, 0, 3.048;                        !- X,Y,Z Vertex 4 {m}

OS:Surface,
  {ec8e30df-26e1-42ef-9f7b-25a2a507c6c0}, !- Handle
  Surface 21,                             !- Name
  Wall,                                   !- Surface Type
  ,                                       !- Construction Name
  {7222f09c-531f-486e-80e3-f57d200d55ce}, !- Space Name
  Surface,                                !- Outside Boundary Condition
  {1f5152a2-460c-430f-a60d-3a8fe4891856}, !- Outside Boundary Condition Object
  NoSun,                                  !- Sun Exposure
  NoWind,                                 !- Wind Exposure
  ,                                       !- View Factor to Ground
  ,                                       !- Number of Vertices
  4.57, 4.57, 3.048,                      !- X,Y,Z Vertex 1 {m}
  4.57, 4.57, 0,                          !- X,Y,Z Vertex 2 {m}
  0, 0, 0,                                !- X,Y,Z Vertex 3 {m}
  0, 0, 3.048;                            !- X,Y,Z Vertex 4 {m}

OS:Surface,
  {966551fa-88b8-4d15-9121-cb2f7ca2d3ba}, !- Handle
  Surface 22,                             !- Name
  Wall,                                   !- Surface Type
  ,                                       !- Construction Name
  {7222f09c-531f-486e-80e3-f57d200d55ce}, !- Space Name
  Surface,                                !- Outside Boundary Condition
  {65a7db35-b680-4c39-aada-18b88dd4c472}, !- Outside Boundary Condition Object
  NoSun,                                  !- Sun Exposure
  NoWind,                                 !- Wind Exposure
  ,                                       !- View Factor to Ground
  ,                                       !- Number of Vertices
  25.91, 4.57, 3.048,                     !- X,Y,Z Vertex 1 {m}
  25.91, 4.57, 0,                         !- X,Y,Z Vertex 2 {m}
  4.57, 4.57, 0,                          !- X,Y,Z Vertex 3 {m}
  4.57, 4.57, 3.048;                      !- X,Y,Z Vertex 4 {m}

OS:Surface,
  {bc2c1cf1-1f79-4713-a5e5-b65e34218e8c}, !- Handle
  Surface 23,                             !- Name
  Wall,                                   !- Surface Type
  ,                                       !- Construction Name
  {7222f09c-531f-486e-80e3-f57d200d55ce}, !- Space Name
  Surface,                                !- Outside Boundary Condition
  {ff7ae61c-a880-4801-b551-3b11874942a9}, !- Outside Boundary Condition Object
  NoSun,                                  !- Sun Exposure
  NoWind,                                 !- Wind Exposure
  ,                                       !- View Factor to Ground
  ,                                       !- Number of Vertices
  30.48, 0, 3.048,                        !- X,Y,Z Vertex 1 {m}
  30.48, 0, 0,                            !- X,Y,Z Vertex 2 {m}
  25.91, 4.57, 0,                         !- X,Y,Z Vertex 3 {m}
  25.91, 4.57, 3.048;                     !- X,Y,Z Vertex 4 {m}

OS:Surface,
  {b46154bb-d6f7-420e-b811-a06f9593c949}, !- Handle
  Surface 24,                             !- Name
  RoofCeiling,                            !- Surface Type
  ,                                       !- Construction Name
  {7222f09c-531f-486e-80e3-f57d200d55ce}, !- Space Name
  Surface,                                !- Outside Boundary Condition
  {73f28ff2-e29c-4eb3-889c-a8a174d9cc17}, !- Outside Boundary Condition Object
  NoSun,                                  !- Sun Exposure
  NoWind,                                 !- Wind Exposure
  ,                                       !- View Factor to Ground
  ,                                       !- Number of Vertices
  25.91, 4.57, 3.048,                     !- X,Y,Z Vertex 1 {m}
  4.57, 4.57, 3.048,                      !- X,Y,Z Vertex 2 {m}
  0, 0, 3.048,                            !- X,Y,Z Vertex 3 {m}
  30.48, 0, 3.048;                        !- X,Y,Z Vertex 4 {m}

OS:Space,
  {bc058774-8840-43cd-8a7b-f5c5759dc995}, !- Handle
  Story 1 Core Space,                     !- Name
  ,                                       !- Space Type Name
  ,                                       !- Default Construction Set Name
  ,                                       !- Default Schedule Set Name
  -0,                                     !- Direction of Relative North {deg}
  4.57,                                   !- X Origin {m}
  4.57,                                   !- Y Origin {m}
  0,                                      !- Z Origin {m}
  {964dc9b9-cc52-40a0-86be-f69779ee8f57}, !- Building Story Name
  {9e826608-9d34-40a7-92b3-e09c54fecf94}; !- Thermal Zone Name

OS:Surface,
  {f869a286-4668-4158-afd2-4fcd66630c1b}, !- Handle
  Surface 25,                             !- Name