
OS:Version,
  {a696efdf-13be-41fd-ad83-5fbcd668d225}, !- Handle
  3.3.0;                                  !- Version Identifier

OS:Site,
  {827793b2-ea13-4496-8dae-fbbd299779a4}, !- Handle
  Austin Mueller Municipal Ap  U,         !- Name
  30.29,                                  !- Latitude {deg}
  -97.74,                                 !- Longitude {deg}
  -6,                                     !- Time Zone {hr}
  213,                                    !- Elevation {m}
  ;                                       !- Terrain

OS:YearDescription,
  {99604dbe-bed9-4a89-9264-dfee59c1ce22}, !- Handle
  ,                                       !- Calendar Year
  Sunday;                                 !- Day of Week for Start Day

OS:ClimateZones,
  {d8e90921-4bf5-49a5-b3de-39bdc6a10fb8}, !- Handle
  ASHRAE,                                 !- Climate Zone Institution Name 1
  ANSI/ASHRAE Standard 169,               !- Climate Zone Document Name 1
  2006,                                   !- Climate Zone Document Year 1
  2A,                                     !- Climate Zone Value 1
  CEC,                                    !- Climate Zone Institution Name 2
  California Climate Zone Descriptions,   !- Climate Zone Document Name 2
  1995,                                   !- Climate Zone Document Year 2
  ;                                       !- Climate Zone Value 2

OS:Building,
  {c39a77bc-b5e2-459f-b492-4669cc6fb515}, !- Handle
  Building 1,                             !- Name
  ,                                       !- Building Sector Type
  ,                                       !- North Axis {deg}
  ,                                       !- Nominal Floor to Floor Height {m}
  {e23ca6a7-1eb1-4075-a3d8-3d6acf2e757d}, !- Space Type Name
  {041274a5-bd99-4c8d-88a5-822e68abae3c}, !- Default Construction Set Name
  ,                                       !- Default Schedule Set Name
  ,                                       !- Standards Number of Stories
  ,                                       !- Standards Number of Above Ground Stories
  ,                                       !- Standards Template
  MidriseApartment;                       !- Standards Building Type

OS:Facility,
  {adf8a8be-3455-41e7-992f-b025661f7c1f}; !- Handle

OS:LifeCycleCost:Parameters,
  {873a8955-6a8e-4125-a290-59971fedb42b}, !- Handle
  ,                                       !- Analysis Type
  ,                                       !- Discounting Convention
  ,                                       !- Inflation Approach
  ,                                       !- Real Discount Rate
  ,                                       !- Nominal Discount Rate
  ,                                       !- Inflation
  ,                                       !- Base Date Month
  ,                                       !- Base Date Year
  ,                                       !- Service Date Month
  ,                                       !- Service Date Year
  ;                                       !- Length of Study Period in Years

OS:RunPeriod,
  {041a6851-0732-470d-8573-892b2058665f}, !- Handle
  Run Period 1,                           !- Name
  1,                                      !- Begin Month
  1,                                      !- Begin Day of Month
  12,                                     !- End Month
  31,                                     !- End Day of Month
  ,                                       !- Use Weather File Holidays and Special Days
  ,                                       !- Use Weather File Daylight Saving Period
  ,                                       !- Apply Weekend Holiday Rule
  ,                                       !- Use Weather File Rain Indicators
  ,                                       !- Use Weather File Snow Indicators
  ;                                       !- Number of Times Runperiod to be Repeated

OS:SizingPeriod:DesignDay,
  {fd8c3850-8853-4b2f-83ff-d3508a88e182}, !- Handle
  Austin Mueller Municipal Ap Ann Clg .4% Condns DB=>MWB, !- Name
  37.6,                                   !- Maximum Dry-Bulb Temperature {C}
  12.5,                                   !- Daily Dry-Bulb Temperature Range {deltaC}
  98792,                                  !- Barometric Pressure {Pa}
  3.7,                                    !- Wind Speed {m/s}
  190,                                    !- Wind Direction {deg}
  0,                                      !- Sky Clearness
  No,                                     !- Rain Indicator
  No,                                     !- Snow Indicator
  21,                                     !- Day of Month
  8,                                      !- Month
  SummerDesignDay,                        !- Day Type
  No,                                     !- Daylight Saving Time Indicator
  Wetbulb,                                !- Humidity Condition Type
  ,                                       !- Humidity Condition Day Schedule Name
  23.9,                                   !- Wetbulb or DewPoint at Maximum Dry-Bulb {C}
  ,                                       !- Humidity Ratio at Maximum Dry-Bulb {kgWater/kgDryAir}
  ,                                       !- Enthalpy at Maximum Dry-Bulb {J/kg}
  DefaultMultipliers,                     !- Dry-Bulb Temperature Range Modifier Type
  ,                                       !- Dry-Bulb Temperature Range Modifier Day Schedule Name
  ASHRAETau,                              !- Solar Model Indicator
  ,                                       !- Beam Solar Day Schedule Name
  ,                                       !- Diffuse Solar Day Schedule Name
  0.457,                                  !- ASHRAE Clear Sky Optical Depth for Beam Irradiance {dimensionless}
  2.114;                                  !- ASHRAE Clear Sky Optical Depth for Diffuse Irradiance {dimensionless}

OS:SizingPeriod:DesignDay,
  {10adf1fa-9558-4b27-b8a7-03ab989b4987}, !- Handle
  Austin Mueller Municipal Ap Ann Clg .4% Condns Enth=>MDB, !- Name
  32,                                     !- Maximum Dry-Bulb Temperature {C}
  12.5,                                   !- Daily Dry-Bulb Temperature Range {deltaC}
  98792,                                  !- Barometric Pressure {Pa}
  3.7,                                    !- Wind Speed {m/s}
  190,                                    !- Wind Direction {deg}
  0,                                      !- Sky Clearness
  No,                                     !- Rain Indicator
  No,                                     !- Snow Indicator
  21,                                     !- Day of Month
  8,                                      !- Month
  SummerDesignDay,                        !- Day Type
  No,                                     !- Daylight Saving Time Indicator
  Enthalpy,                               !- Humidity Condition Type
  ,                                       !- Humidity Condition Day Schedule Name
  ,                                       !- Wetbulb or DewPoint at Maximum Dry-Bulb {C}
  ,                                       !- Humidity Ratio at Maximum Dry-Bulb {kgWater/kgDryAir}
  81800,                                  !- Enthalpy at Maximum Dry-Bulb {J/kg}
  DefaultMultipliers,                     !- Dry-Bulb Temperature Range Modifier Type
  ,                                       !- Dry-Bulb Temperature Range Modifier Day Schedule Name
  ASHRAETau,                              !- Solar Model Indicator
  ,                                       !- Beam Solar Day Schedule Name
  ,                                       !- Diffuse Solar Day Schedule Name
  0.457,                                  !- ASHRAE Clear Sky Optical Depth for Beam Irradiance {dimensionless}
  2.114;                                  !- ASHRAE Clear Sky Optical Depth for Diffuse Irradiance {dimensionless}

OS:SizingPeriod:DesignDay,
  {b8b49c35-f24d-4d87-b35b-61f0e4ace99b}, !- Handle
  Austin Mueller Municipal Ap Ann Htg Wind 99.6% Condns WS=>MCDB, !- Name
  8.3,                                    !- Maximum Dry-Bulb Temperature {C}
  0,                                      !- Daily Dry-Bulb Temperature Range {deltaC}
  98792,                                  !- Barometric Pressure {Pa}
  11.5,                                   !- Wind Speed {m/s}
  10,                                     !- Wind Direction {deg}
  0,                                      !- Sky Clearness
  No,                                     !- Rain Indicator
  No,                                     !- Snow Indicator
  21,                                     !- Day of Month
  1,                                      !- Month
  WinterDesignDay,                        !- Day Type
  No,                                     !- Daylight Saving Time Indicator
  Wetbulb,                                !- Humidity Condition Type
  ,                                       !- Humidity Condition Day Schedule Name
  8.3,                                    !- Wetbulb or DewPoint at Maximum Dry-Bulb {C}
  ,                                       !- Humidity Ratio at Maximum Dry-Bulb {kgWater/kgDryAir}
  ,                                       !- Enthalpy at Maximum Dry-Bulb {J/kg}
  DefaultMultipliers,                     !- Dry-Bulb Temperature Range Modifier Type
  ,                                       !- Dry-Bulb Temperature Range Modifier Day Schedule Name
  ASHRAEClearSky;                         !- Solar Model Indicator

OS:SizingPeriod:DesignDay,
  {799d0452-e741-4917-bfe0-86a621d60562}, !- Handle
  Austin Mueller Municipal Ap Ann Hum_n 99.6% Condns DP=>MCDB, !- Name
  1.3,                                    !- Maximum Dry-Bulb Temperature {C}
  0,                                      !- Daily Dry-Bulb Temperature Range {deltaC}
  98792,                                  !- Barometric Pressure {Pa}
  3.2,                                    !- Wind Speed {m/s}
  10,                                     !- Wind Direction {deg}
  0,                                      !- Sky Clearness
  No,                                     !- Rain Indicator
  No,                                     !- Snow Indicator
  21,                                     !- Day of Month
  1,                                      !- Month
  WinterDesignDay,                        !- Day Type
  No,                                     !- Daylight Saving Time Indicator
  Dewpoint,                               !- Humidity Condition Type
  ,                                       !- Humidity Condition Day Schedule Name
  -11.9,                                  !- Wetbulb or DewPoint at Maximum Dry-Bulb {C}
  ,                                       !- Humidity Ratio at Maximum Dry-Bulb {kgWater/kgDryAir}
  ,                                       !- Enthalpy at Maximum Dry-Bulb {J/kg}
  DefaultMultipliers,                     !- Dry-Bulb Temperature Range Modifier Type
  ,                                       !- Dry-Bulb Temperature Range Modifier Day Schedule Name
  ASHRAEClearSky;                         !- Solar Model Indicator

OS:SizingPeriod:DesignDay,
  {5cff52ed-c25a-4414-8f03-6f52ae22c69d}, !- Handle
  Austin Mueller Municipal Ap Ann Clg .4% Condns WB=>MDB, !- Name
  32.1,                                   !- Maximum Dry-Bulb Temperature {C}
  12.5,                                   !- Daily Dry-Bulb Temperature Range {deltaC}
  98792,                                  !- Barometric Pressure {Pa}
  3.7,                                    !- Wind Speed {m/s}
  190,                                    !- Wind Direction {deg}
  0,                                      !- Sky Clearness
  No,                                     !- Rain Indicator
  No,                                     !- Snow Indicator
  21,                                     !- Day of Month
  8,                                      !- Month
  SummerDesignDay,                        !- Day Type
  No,                                     !- Daylight Saving Time Indicator
  Wetbulb,                                !- Humidity Condition Type
  ,                                       !- Humidity Condition Day Schedule Name
  26.2,                                   !- Wetbulb or DewPoint at Maximum Dry-Bulb {C}
  ,                                       !- Humidity Ratio at Maximum Dry-Bulb {kgWater/kgDryAir}
  ,                                       !- Enthalpy at Maximum Dry-Bulb {J/kg}
  DefaultMultipliers,                     !- Dry-Bulb Temperature Range Modifier Type
  ,                                       !- Dry-Bulb Temperature Range Modifier Day Schedule Name
  ASHRAETau,                              !- Solar Model Indicator
  ,                                       !- Beam Solar Day Schedule Name
  ,                                       !- Diffuse Solar Day Schedule Name
  0.457,                                  !- ASHRAE Clear Sky Optical Depth for Beam Irradiance {dimensionless}
  2.114;                                  !- ASHRAE Clear Sky Optical Depth for Diffuse Irradiance {dimensionless}

OS:SizingPeriod:DesignDay,
  {6c1132f1-14e7-4802-bef5-f13c9fff5545}, !- Handle
  Austin Mueller Municipal Ap Ann Clg .4% Condns DP=>MDB, !- Name
  27.6,                                   !- Maximum Dry-Bulb Temperature {C}
  12.5,                                   !- Daily Dry-Bulb Temperature Range {deltaC}
  98792,                                  !- Barometric Pressure {Pa}
  3.7,                                    !- Wind Speed {m/s}
  190,                                    !- Wind Direction {deg}
  0,                                      !- Sky Clearness
  No,                                     !- Rain Indicator
  No,                                     !- Snow Indicator
  21,                                     !- Day of Month
  8,                                      !- Month
  SummerDesignDay,                        !- Day Type
  No,                                     !- Daylight Saving Time Indicator
  Dewpoint,                               !- Humidity Condition Type
  ,                                       !- Humidity Condition Day Schedule Name
  24.9,                                   !- Wetbulb or DewPoint at Maximum Dry-Bulb {C}
  ,                                       !- Humidity Ratio at Maximum Dry-Bulb {kgWater/kgDryAir}
  ,                                       !- Enthalpy at Maximum Dry-Bulb {J/kg}
  DefaultMultipliers,                     !- Dry-Bulb Temperature Range Modifier Type
  ,                                       !- Dry-Bulb Temperature Range Modifier Day Schedule Name
  ASHRAETau,                              !- Solar Model Indicator
  ,                                       !- Beam Solar Day Schedule Name
  ,                                       !- Diffuse Solar Day Schedule Name
  0.457,                                  !- ASHRAE Clear Sky Optical Depth for Beam Irradiance {dimensionless}
  2.114;                                  !- ASHRAE Clear Sky Optical Depth for Diffuse Irradiance {dimensionless}

OS:SizingPeriod:DesignDay,
  {7ecd2278-5d8e-4257-84a8-82e01ce2eaaa}, !- Handle
  Austin Mueller Municipal Ap Ann Htg 99.6% Condns DB, !- Name
  -3.8,                                   !- Maximum Dry-Bulb Temperature {C}
  0,                                      !- Daily Dry-Bulb Temperature Range {deltaC}
  98792,                                  !- Barometric Pressure {Pa}
  3.2,                                    !- Wind Speed {m/s}
  10,                                     !- Wind Direction {deg}
  0,                                      !- Sky Clearness
  No,                                     !- Rain Indicator
  No,                                     !- Snow Indicator
  21,                                     !- Day of Month
  1,                                      !- Month
  WinterDesignDay,                        !- Day Type
  No,                                     !- Daylight Saving Time Indicator
  Wetbulb,                                !- Humidity Condition Type
  ,                                       !- Humidity Condition Day Schedule Name
  -3.8,                                   !- Wetbulb or DewPoint at Maximum Dry-Bulb {C}
  ,                                       !- Humidity Ratio at Maximum Dry-Bulb {kgWater/kgDryAir}
  ,                                       !- Enthalpy at Maximum Dry-Bulb {J/kg}
  DefaultMultipliers,                     !- Dry-Bulb Temperature Range Modifier Type
  ,                                       !- Dry-Bulb Temperature Range Modifier Day Schedule Name
  ASHRAEClearSky;                         !- Solar Model Indicator

OS:BuildingStory,
  {1b146bbe-80f0-4565-b9dd-1b3f2f34ad9d}, !- Handle
  Story 1,                                !- Name
  0,                                      !- Nominal Z Coordinate {m}
  3.048,                                  !- Nominal Floor to Floor Height {m}
  ,                                       !- Default Construction Set Name
  ,                                       !- Default Schedule Set Name
  ;                                       !- Group Rendering Name

OS:Space,
  {be862905-eed1-43bc-96f1-6bccb167d851}, !- Handle
  Story 1 West Perimeter Space,           !- Name
  ,                                       !- Space Type Name
  ,                                       !- Default Construction Set Name
  ,                                       !- Default Schedule Set Name
  -0,                                     !- Direction of Relative North {deg}
  0,                                      !- X Origin {m}
  0,                                      !- Y Origin {m}
  0,                                      !- Z Origin {m}
  {1b146bbe-80f0-4565-b9dd-1b3f2f34ad9d}, !- Building Story Name
  {b5f258b8-0f9d-495a-8f4b-691830d7c1e9}; !- Thermal Zone Name

OS:Surface,
  {4e942760-50dd-4257-a670-f83efcf9eaf6}, !- Handle
  Surface 1,                              !- Name
  Floor,                                  !- Surface Type
  ,                                       !- Construction Name
  {be862905-eed1-43bc-96f1-6bccb167d851}, !- Space Name
  Ground,                                 !- Outside Boundary Condition
  ,                                       !- Outside Boundary Condition Object
  NoSun,                                  !- Sun Exposure
  NoWind,                                 !- Wind Exposure
  ,                                       !- View Factor to Ground
  ,                                       !- Number of Vertices
  0, 0, 0,                                !- X,Y,Z Vertex 1 {m}
  0, 15.24, 0,                            !- X,Y,Z Vertex 2 {m}
  4.57, 10.67, 0,                         !- X,Y,Z Vertex 3 {m}
  4.57, 4.57, 0;                          !- X,Y,Z Vertex 4 {m}

OS:Surface,
  {06042712-8efb-44bd-8bc0-9e466761aa1d}, !- Handle
  Surface 2,                              !- Name
  Wall,                                   !- Surface Type
  ,                                       !- Construction Name
  {be862905-eed1-43bc-96f1-6bccb167d851}, !- Space Name
  Outdoors,                               !- Outside Boundary Condition
  ,                                       !- Outside Boundary Condition Object
  SunExposed,                             !- Sun Exposure
  WindExposed,                            !- Wind Exposure
  ,                                       !- View Factor to Ground
  ,                                       !- Number of Vertices
  0, 15.24, 3.048,                        !- X,Y,Z Vertex 1 {m}
  0, 15.24, 0,                            !- X,Y,Z Vertex 2 {m}
  0, 0, 0,                                !- X,Y,Z Vertex 3 {m}
  0, 0, 3.048;                            !- X,Y,Z Vertex 4 {m}

OS:Surface,
  {d33ba46d-8354-4ab8-ac91-e1b3d26b676b}, !- Handle
  Surface 3,                              !- Name
  Wall,                                   !- Surface Type
  ,                                       !- Construction Name
  {be862905-eed1-43bc-96f1-6bccb167d851}, !- Space Name
  Surface,                                !- Outside Boundary Condition
  {1271ee76-6891-44b4-94f2-becf6e132358}, !- Outside Boundary Condition Object
  NoSun,                                  !- Sun Exposure
  NoWind,                                 !- Wind Exposure
  ,                                       !- View Factor to Ground
  ,                                       !- Number of Vertices
  4.57, 10.67, 3.048,                     !- X,Y,Z Vertex 1 {m}
  4.57, 10.67, 0,                         !- X,Y,Z Vertex 2 {m}
  0, 15.24, 0,                            !- X,Y,Z Vertex 3 {m}
  0, 15.24, 3.048;                        !- X,Y,Z Vertex 4 {m}

OS:Surface,
  {e719115a-21a9-4650-996e-d4785ad36f57}, !- Handle
  Surface 4,                              !- Name
  Wall,                                   !- Surface Type
  ,                                       !- Construction Name
  {be862905-eed1-43bc-96f1-6bccb167d851}, !- Space Name
  Surface,                                !- Outside Boundary Condition
  {e47b9c3d-cac6-4329-88c0-92070145f638}, !- Outside Boundary Condition Object
  NoSun,                                  !- Sun Exposure
  NoWind,                                 !- Wind Exposure
  ,                                       !- View Factor to Ground
  ,                                       !- Number of Vertices
  4.57, 4.57, 3.048,                      !- X,Y,Z Vertex 1 {m}
  4.57, 4.57, 0,                          !- X,Y,Z Vertex 2 {m}
  4.57, 10.67, 0,                         !- X,Y,Z Vertex 3 {m}
  4.57, 10.67, 3.048;                     !- X,Y,Z Vertex 4 {m}

OS:Surface,
  {fb0e557f-93a5-4b13-9ba8-3da313b478e8}, !- Handle
  Surface 5,                              !- Name
  Wall,                                   !- Surface Type
  ,                                       !- Construction Name
  {be862905-eed1-43bc-96f1-6bccb167d851}, !- Space Name
  Surface,                                !- Outside Boundary Condition
  {655891f6-a8d2-453f-be19-60f920ea0393}, !- Outside Boundary Condition Object
  NoSun,                                  !- Sun Exposure
  NoWind,                                 !- Wind Exposure
  ,                                       !- View Factor to Ground
  ,                                       !- Number of Vertices
  0, 0, 3.048,                            !- X,Y,Z Vertex 1 {m}
  0, 0, 0,                                !- X,Y,Z Vertex 2 {m}
  4.57, 4.57, 0,                          !- X,Y,Z Vertex 3 {m}
  4.57, 4.57, 3.048;                      !- X,Y,Z Vertex 4 {m}

OS:Surface,
  {7f16b403-ceba-4d3b-96b0-e5c7d0bd084a}, !- Handle
  Surface 6,                              !- Name
  RoofCeiling,                            !- Surface Type
  ,                                       !- Construction Name
  {be862905-eed1-43bc-96f1-6bccb167d851}, !- Space Name
  Surface,                                !- Outside Boundary Condition
  {b3d8f012-41d7-4506-b79d-62e6772ac9fd}, !- Outside Boundary Condition Object
  NoSun,                                  !- Sun Exposure
  NoWind,                                 !- Wind Exposure
  ,                                       !- View Factor to Ground
  ,                                       !- Number of Vertices
  4.57, 4.57, 3.048,                      !- X,Y,Z Vertex 1 {m}
  4.57, 10.67, 3.048,                     !- X,Y,Z Vertex 2 {m}
  0, 15.24, 3.048,                        !- X,Y,Z Vertex 3 {m}
  0, 0, 3.048;                            !- X,Y,Z Vertex 4 {m}

OS:Space,
  {5569f9b0-3175-4b76-b6b3-3fc5e18b2f43}, !- Handle
  Story 1 North Perimeter Space,          !- Name
  ,                                       !- Space Type Name
  ,                                       !- Default Construction Set Name
  ,                                       !- Default Schedule Set Name
  -0,                                     !- Direction of Relative North {deg}
  4.57,                                   !- X Origin {m}
  10.67,                                  !- Y Origin {m}
  0,                                      !- Z Origin {m}
  {1b146bbe-80f0-4565-b9dd-1b3f2f34ad9d}, !- Building Story Name
  {5990c76c-aa5b-4498-b210-c8b9cea16484}; !- Thermal Zone Name

OS:Surface,
  {df685900-6b0d-48f0-94f7-c43823b37523}, !- Handle
  Surface 7,                              !- Name
  Floor,                                  !- Surface Type
  ,                                       !- Construction Name
  {5569f9b0-3175-4b76-b6b3-3fc5e18b2f43}, !- Space Name
  Ground,                                 !- Outside Boundary Condition
  ,                                       !- Outside Boundary Condition Object
  NoSun,                                  !- Sun Exposure
  NoWind,                                 !- Wind Exposure
  ,                                       !- View Factor to Ground
  ,                                       !- Number of Vertices
  -4.57, 4.57, 0,                         !- X,Y,Z Vertex 1 {m}
  25.91, 4.57, 0,                         !- X,Y,Z Vertex 2 {m}
  21.34, 0, 0,                            !- X,Y,Z Vertex 3 {m}
  0, 0, 0;                                !- X,Y,Z Vertex 4 {m}

OS:Surface,
  {da07520d-18e9-4d1b-a656-faaf86de4cff}, !- Handle
  Surface 8,                              !- Name
  Wall,                                   !- Surface Type
  ,                                       !- Construction Name
  {5569f9b0-3175-4b76-b6b3-3fc5e18b2f43}, !- Space Name
  Outdoors,                               !- Outside Boundary Condition
  ,                                       !- Outside Boundary Condition Object
  SunExposed,                             !- Sun Exposure
  WindExposed,                            !- Wind Exposure
  ,                                       !- View Factor to Ground
  ,                                       !- Number of Vertices
  25.91, 4.57, 3.048,                     !- X,Y,Z Vertex 1 {m}
  25.91, 4.57, 0,                         !- X,Y,Z Vertex 2 {m}
  -4.57, 4.57, 0,                         !- X,Y,Z Vertex 3 {m}
  -4.57, 4.57, 3.048;                     !- X,Y,Z Vertex 4 {m}

OS:Surface,
  {e962a6f4-31f8-49c9-a82f-0cdd46d7feb4}, !- Handle
  Surface 9,                              !- Name
  Wall,                                   !- Surface Type
  ,                                       !- Construction Name
  {5569f9b0-3175-4b76-b6b3-3fc5e18b2f43}, !- Space Name
  Surface,                                !- Outside Boundary Condition
  {a2061927-33ab-490f-ab17-a1db5581055f}, !- Outside Boundary Condition Object
  NoSun,                                  !- Sun Exposure
  NoWind,                                 !- Wind Exposure
  ,                                       !- View Factor to Ground
  ,                                       !- Number of Vertices
  21.34, 0, 3.048,                        !- X,Y,Z Vertex 1 {m}
  21.34, 0, 0,                            !- X,Y,Z Vertex 2 {m}
  25.91, 4.57, 0,                         !- X,Y,Z Vertex 3 {m}
  25.91, 4.57, 3.048;                     !- X,Y,Z Vertex 4 {m}

OS:Surface,
  {33386ea2-bf3d-4ed8-9025-b76d1181fafc}, !- Handle
  Surface 10,                             !- Name
  Wall,                                   !- Surface Type
  ,                                       !- Construction Name
  {5569f9b0-3175-4b76-b6b3-3fc5e18b2f43}, !- Space Name
  Surface,                                !- Outside Boundary Condition
  {5ba8c154-f660-4041-b91d-cf1112626a74}, !- Outside Boundary Condition Object
  NoSun,                                  !- Sun Exposure
  NoWind,                                 !- Wind Exposure
  ,                                       !- View Factor to Ground
  ,                                       !- Number of Vertices
  0, 0, 3.048,                            !- X,Y,Z Vertex 1 {m}
  0, 0, 0,                                !- X,Y,Z Vertex 2 {m}
  21.34, 0, 0,                            !- X,Y,Z Vertex 3 {m}
  21.34, 0, 3.048;                        !- X,Y,Z Vertex 4 {m}

OS:Surface,
  {1271ee76-6891-44b4-94f2-becf6e132358}, !- Handle
  Surface 11,                             !- Name
  Wall,                                   !- Surface Type
  ,                                       !- Construction Name
  {5569f9b0-3175-4b76-b6b3-3fc5e18b2f43}, !- Space Name
  Surface,                                !- Outside Boundary Condition
  {d33ba46d-8354-4ab8-ac91-e1b3d26b676b}, !- Outside Boundary Condition Object
  NoSun,                                  !- Sun Exposure
  NoWind,                                 !- Wind Exposure
  ,                                       !- View Factor to Ground
  ,                                       !- Number of Vertices
  -4.57, 4.57, 3.048,                     !- X,Y,Z Vertex 1 {m}
  -4.57, 4.57, 0,                         !- X,Y,Z Vertex 2 {m}
  0, 0, 0,                                !- X,Y,Z Vertex 3 {m}
  0, 0, 3.048;                            !- X,Y,Z Vertex 4 {m}

OS:Surface,
  {a901e73a-9907-496e-88f1-7fe223e70092}, !- Handle
  Surface 12,                             !- Name
  RoofCeiling,                            !- Surface Type
  ,                                       !- Construction Name
  {5569f9b0-3175-4b76-b6b3-3fc5e18b2f43}, !- Space Name
  Surface,                                !- Outside Boundary Condition
  {987a8946-b040-4ca8-852c-1569b786c5c5}, !- Outside Boundary Condition Object
  NoSun,                                  !- Sun Exposure
  NoWind,                                 !- Wind Exposure
  ,                                       !- View Factor to Ground
  ,                                       !- Number of Vertices
  0, 0, 3.048,                            !- X,Y,Z Vertex 1 {m}
  21.34, 0, 3.048,                        !- X,Y,Z Vertex 2 {m}
  25.91, 4.57, 3.048,                     !- X,Y,Z Vertex 3 {m}
  -4.57, 4.57, 3.048;                     !- X,Y,Z Vertex 4 {m}

OS:Space,
  {6e8a57be-9333-412b-8244-2405dca7fb68}, !- Handle
  Story 1 East Perimeter Space,           !- Name