
OS:Version,
  {8bdfe1ef-2f43-42d9-a8ff-ac11ae9555d3}, !- Handle
  3.3.0;                                  !- Version Identifier

OS:Facility,
  {07e139d3-d1b2-4f74-aadb-16a530507c87}; !- Handle

OS:Site,
  {2f33884b-78f8-4440-8a7e-f89822b2d802}, !- Handle
  Buffalo Niagara Intl Ap_NY_USA,         !- Name
  42.93,                                  !- Latitude {deg}
  -78.73,                                 !- Longitude {deg}
  -5,                                     !- Time Zone {hr}
  215,                                    !- Elevation {m}
  City;                                   !- Terrain

OS:SimulationControl,
  {62d7fb51-fd19-495f-a0a5-d240e83f05bf}, !- Handle
  ,                                       !- Do Zone Sizing Calculation
  ,                                       !- Do System Sizing Calculation
  ,                                       !- Do Plant Sizing Calculation
  No,                                     !- Run Simulation for Sizing Periods
  Yes,                                    !- Run Simulation for Weather File Run Periods
  ,                                       !- Loads Convergence Tolerance Value {W}
  ,                                       !- Temperature Convergence Tolerance Value {deltaC}
  ,                                       !- Solar Distribution
  ,                                       !- Maximum Number of Warmup Days
  ,                                       !- Minimum Number of Warmup Days
  No,                                     !- Do HVAC Sizing Simulation for Sizing Periods
  1;                                      !- Maximum Number of HVAC Sizing Simulation Passes

OS:Sizing:Parameters,
  {08a78a19-4703-41c9-a9e0-dd76b2a013ae}, !- Handle
  1.25,                                   !- Heating Sizing Factor
  1.15;                                   !- Cooling Sizing Factor

OS:Timestep,
  {bcae5b81-8dc9-419f-b67c-7abe9f6842b9}, !- Handle
  1;                                      !- Number of Timesteps per Hour

OS:ShadowCalculation,
  {0545078d-ce62-480e-91eb-47631bff63ab}, !- Handle
  PolygonClipping,                        !- Shading Calculation Method
  ,                                       !- Shading Calculation Update Frequency Method
  20,                                     !- Shading Calculation Update Frequency
  15000,                                  !- Maximum Figures in Shadow Overlap Calculations
  ,                                       !- Polygon Clipping Algorithm
  512,                                    !- Pixel Counting Resolution
  ,                                       !- Sky Diffuse Modeling Algorithm
  No,                                     !- Output External Shading Calculation Results
  No,                                     !- Disable Self-Shading Within Shading Zone Groups
  No;                                     !- Disable Self-Shading From Shading Zone Groups to Other Zones

OS:HeatBalanceAlgorithm,
  {3af73674-fb87-48aa-b738-b45d168324d8}, !- Handle
  ConductionTransferFunction,             !- Algorithm
  200;                                    !- Surface Temperature Upper Limit {C}

OS:RunPeriod,
  {c71d774b-382a-4d55-a713-e88bcfead4e7}, !- Handle
  Run Period 1,                           !- Name
  1,                                      !- Begin Month
  1,                                      !- Begin Day of Month
  12,                                     !- End Month
  31,                                     !- End Day of Month
  ,                                       !- Use Weather File Holidays and Special Days
  ,                                       !- Use Weather File Daylight Saving Period
  ,                                       !- Apply Weekend Holiday Rule
  ,                                       !- Use Weather File Rain Indicators
  ,                                       !- Use Weather File Snow Indicators
  ;                                       !- Number of Times Runperiod to be Repeated

OS:LifeCycleCost:Parameters,
  {a1f63d2f-8383-42fc-8b24-bcea78eb0d8b}, !- Handle
  ,                                       !- Analysis Type
  ,                                       !- Discounting Convention
  ,                                       !- Inflation Approach
  ,                                       !- Real Discount Rate
  ,                                       !- Nominal Discount Rate
  ,                                       !- Inflation
  ,                                       !- Base Date Month
  ,                                       !- Base Date Year
  ,                                       !- Service Date Month
  ,                                       !- Service Date Year
  ;                                       !- Length of Study Period in Years

OS:YearDescription,
  {00ae43d6-330c-4f14-b67d-56543f31d12c}, !- Handle
  2017,                                   !- Calendar Year
  ,                                       !- Day of Week for Start Day
  ;                                       !- Is Leap Year

OS:WeatherFile,
  {6fcb77c0-77e6-4f23-aa32-c4fdf2200242}, !- Handle
  Buffalo Niagara Intl Ap,                !- City
  NY,                                     !- State Province Region
  USA,                                    !- Country
  TMY3,                                   !- Data Source
  725280,                                 !- WMO Number
  42.93,                                  !- Latitude {deg}
  -78.73,                                 !- Longitude {deg}
  -5,                                     !- Time Zone {hr}
  215,                                    !- Elevation {m}
  /Users/dgoldwas/Documents/github/uo/urbanopt-example-geojson-project/example_project/weather/USA_NY_Buffalo-Greater.Buffalo.Intl.AP.725280_TMY3.epw, !- Url
  ;                                       !- Checksum

OS:Site:WaterMainsTemperature,
  {dd97e4ee-f5a8-4796-a09b-e961286e7cfc}, !- Handle
  Correlation,                            !- Calculation Method
  ,                                       !- Temperature Schedule Name
  8.96666666666667,                       !- Annual Average Outdoor Air Temperature {C}
  26.2;                                   !- Maximum Difference In Monthly Average Outdoor Air Temperatures {deltaC}

OS:SizingPeriod:DesignDay,
  {ffd36fa5-5734-4924-809b-df5549c76e53}, !- Handle
  Buffalo Niagara Intl Ap Ann Clg .4% Condns DB=>MWB 1, !- Name
  30.3,                                   !- Maximum Dry-Bulb Temperature {C}
  9.3,                                    !- Daily Dry-Bulb Temperature Range {deltaC}
  98769,                                  !- Barometric Pressure {Pa}
  5.7,                                    !- Wind Speed {m/s}
  240,                                    !- Wind Direction {deg}
  ,                                       !- Sky Clearness
  No,                                     !- Rain Indicator
  No,                                     !- Snow Indicator
  21,                                     !- Day of Month
  7,                                      !- Month
  SummerDesignDay,                        !- Day Type
  No,                                     !- Daylight Saving Time Indicator
  Wetbulb,                                !- Humidity Condition Type
  ,                                       !- Humidity Condition Day Schedule Name
  21.8,                                   !- Wetbulb or DewPoint at Maximum Dry-Bulb {C}
  ,                                       !- Humidity Ratio at Maximum Dry-Bulb {kgWater/kgDryAir}
  ,                                       !- Enthalpy at Maximum Dry-Bulb {J/kg}
  DefaultMultipliers,                     !- Dry-Bulb Temperature Range Modifier Type
  ,                                       !- Dry-Bulb Temperature Range Modifier Day Schedule Name
  ASHRAETau,                              !- Solar Model Indicator
  ,                                       !- Beam Solar Day Schedule Name
  ,                                       !- Diffuse Solar Day Schedule Name
  0.462,                                  !- ASHRAE Clear Sky Optical Depth for Beam Irradiance {dimensionless}
  2.001;                                  !- ASHRAE Clear Sky Optical Depth for Diffuse Irradiance {dimensionless}

OS:SizingPeriod:DesignDay,
  {36049d83-3d61-43e7-9b65-baefecbedd5d}, !- Handle
  Buffalo Niagara Intl Ap Ann Clg .4% Condns WB=>MDB 1, !- Name
  27.8,                                   !- Maximum Dry-Bulb Temperature {C}
  9.3,                                    !- Daily Dry-Bulb Temperature Range {deltaC}
  98769,                                  !- Barometric Pressure {Pa}
  5.7,                                    !- Wind Speed {m/s}
  240,                                    !- Wind Direction {deg}
  ,                                       !- Sky Clearness
  No,                                     !- Rain Indicator
  No,                                     !- Snow Indicator
  21,                                     !- Day of Month
  7,                                      !- Month
  SummerDesignDay,                        !- Day Type
  No,                                     !- Daylight Saving Time Indicator
  Wetbulb,                                !- Humidity Condition Type
  ,                                       !- Humidity Condition Day Schedule Name
  23.8,                                   !- Wetbulb or DewPoint at Maximum Dry-Bulb {C}
  ,                                       !- Humidity Ratio at Maximum Dry-Bulb {kgWater/kgDryAir}
  ,                                       !- Enthalpy at Maximum Dry-Bulb {J/kg}
  DefaultMultipliers,                     !- Dry-Bulb Temperature Range Modifier Type
  ,                                       !- Dry-Bulb Temperature Range Modifier Day Schedule Name
  ASHRAETau,                              !- Solar Model Indicator
  ,                                       !- Beam Solar Day Schedule Name
  ,                                       !- Diffuse Solar Day Schedule Name
  0.462,                                  !- ASHRAE Clear Sky Optical Depth for Beam Irradiance {dimensionless}
  2.001;                                  !- ASHRAE Clear Sky Optical Depth for Diffuse Irradiance {dimensionless}

OS:SizingPeriod:DesignDay,
  {7bafa1d9-f019-43c3-8823-f8ab044e07ed}, !- Handle
  Buffalo Niagara Intl Ap Ann Htg 99.6% Condns DB 1, !- Name
  -16.3,                                  !- Maximum Dry-Bulb Temperature {C}
  0,                                      !- Daily Dry-Bulb Temperature Range {deltaC}
  98769,                                  !- Barometric Pressure {Pa}
  5.1,                                    !- Wind Speed {m/s}
  270,                                    !- Wind Direction {deg}
  0,                                      !- Sky Clearness
  No,                                     !- Rain Indicator
  No,                                     !- Snow Indicator
  21,                                     !- Day of Month
  1,                                      !- Month
  WinterDesignDay,                        !- Day Type
  No,                                     !- Daylight Saving Time Indicator
  Wetbulb,                                !- Humidity Condition Type
  ,                                       !- Humidity Condition Day Schedule Name
  -16.3,                                  !- Wetbulb or DewPoint at Maximum Dry-Bulb {C}
  ,                                       !- Humidity Ratio at Maximum Dry-Bulb {kgWater/kgDryAir}
  ,                                       !- Enthalpy at Maximum Dry-Bulb {J/kg}
  DefaultMultipliers,                     !- Dry-Bulb Temperature Range Modifier Type
  ,                                       !- Dry-Bulb Temperature Range Modifier Day Schedule Name
  ASHRAEClearSky;                         !- Solar Model Indicator

OS:ClimateZones,
  {2679eec2-3f23-4fb3-b66e-a4b31fe6bd51}, !- Handle
  ASHRAE,                                 !- Climate Zone Institution Name 1
  ANSI/ASHRAE Standard 169,               !- Climate Zone Document Name 1
  2006,                                   !- Climate Zone Document Year 1
  6A;                                     !- Climate Zone Value 1

OS:Building,
  {3ce700f4-29b9-4576-9f01-63805c80121d}, !- Handle
  90.1-2013|LargeHotel,                   !- Name
  ,                                       !- Building Sector Type
  ,                                       !- North Axis {deg}
  ,                                       !- Nominal Floor to Floor Height {m}
  ,                                       !- Space Type Name
  {bb4ab74f-968a-4ac6-92ae-8fe33a8551db}, !- Default Construction Set Name
  ,                                       !- Default Schedule Set Name
  ,                                       !- Standards Number of Stories
  ,                                       !- Standards Number of Above Ground Stories
  ,                                       !- Standards Template
  LargeHotel;                             !- Standards Building Type

OS:SpaceType,
  {6c954e8a-50b4-49eb-a685-9c7761c78e7f}, !- Handle
  LargeHotel Laundry - 90.1-2013,         !- Name
  ,                                       !- Default Construction Set Name
  {73a7e8fa-781a-4d7f-b003-e16ed3eb922b}, !- Default Schedule Set Name
  {3c3f0522-15db-4893-a1fa-6d50b003b85f}, !- Group Rendering Name
  {9761394d-fcfe-4826-bcf3-d79be0cbdf2d}, !- Design Specification Outdoor Air Object Name
  ,                                       !- Standards Template
  LargeHotel,                             !- Standards Building Type
  Laundry;                                !- Standards Space Type

OS:Rendering:Color,
  {3c3f0522-15db-4893-a1fa-6d50b003b85f}, !- Handle
  LargeHotel Laundry,                     !- Name
  120,                                    !- Rendering Red Value
  149,                                    !- Rendering Green Value
  230;                                    !- Rendering Blue Value

OS:SpaceType,
  {0c33caa5-0648-410a-b825-5fee6e81322c}, !- Handle
  LargeHotel Storage - 90.1-2013,         !- Name
  ,                                       !- Default Construction Set Name
  {189b28d3-7a51-4d3d-a48d-e8891c6fd389}, !- Default Schedule Set Name
  {9701cae8-d229-4c46-8947-a3b94d255f94}, !- Group Rendering Name
  {11b1cf61-6108-4561-a36d-4e50b48a524f}, !- Design Specification Outdoor Air Object Name
  ,                                       !- Standards Template
  LargeHotel,                             !- Standards Building Type
  Storage;                                !- Standards Space Type

OS:Rendering:Color,
  {9701cae8-d229-4c46-8947-a3b94d255f94}, !- Handle
  LargeHotel Storage,                     !- Name
  120,                                    !- Rendering Red Value
  149,                                    !- Rendering Green Value
  230;                                    !- Rendering Blue Value

OS:SpaceType,
  {4e19a135-60da-4b97-84e4-2620c8bb29cf}, !- Handle
  LargeHotel Kitchen - 90.1-2013,         !- Name
  ,                                       !- Default Construction Set Name
  {94d2b578-f965-4f17-ae34-4a92ec7b58c2}, !- Default Schedule Set Name
  {5febc350-79eb-4136-a5b6-376ec2070677}, !- Group Rendering Name
  {5cf7847f-6858-4e25-ba75-e1b948e90836}, !- Design Specification Outdoor Air Object Name
  ,                                       !- Standards Template
  LargeHotel,                             !- Standards Building Type
  Kitchen;                                !- Standards Space Type

OS:Rendering:Color,
  {5febc350-79eb-4136-a5b6-376ec2070677}, !- Handle
  LargeHotel Kitchen,                     !- Name
  78,                                     !- Rendering Red Value
  222,                                    !- Rendering Green Value
  133;                                    !- Rendering Blue Value

OS:SpaceType,
  {e098b1e6-71c9-45ed-819d-bf9e98aa2dce}, !- Handle
  LargeHotel Retail - 90.1-2013,          !- Name
  ,                                       !- Default Construction Set Name
  {b9d9a1fd-e0b3-4080-8092-82ee1872d983}, !- Default Schedule Set Name
  {7bb0642a-5408-4fe5-939b-aa4bfd4d580a}, !- Group Rendering Name
  {7c29fb9b-e7ea-4163-8a84-4b394997732b}, !- Design Specification Outdoor Air Object Name
  ,                                       !- Standards Template
  LargeHotel,                             !- Standards Building Type
  Retail;                                 !- Standards Space Type

OS:Rendering:Color,
  {7bb0642a-5408-4fe5-939b-aa4bfd4d580a}, !- Handle
  LargeHotel Retail,                      !- Name
  171,                                    !- Rendering Red Value
  222,                                    !- Rendering Green Value
  78;                                     !- Rendering Blue Value

OS:SpaceType,
  {c46ce736-e7ae-4f89-aae8-d96a3bb9e1e5}, !- Handle
  LargeHotel Mechanical - 90.1-2013,      !- Name
  ,                                       !- Default Construction Set Name
  {f66d5559-9294-44fd-bf20-6a8393d1652c}, !- Default Schedule Set Name
  {d5c014e5-f382-4535-b171-c5cb076ce6e3}, !- Group Rendering Name
  {8190e5fc-2e53-4994-88ec-a4e5961472bc}, !- Design Specification Outdoor Air Object Name
  ,                                       !- Standards Template
  LargeHotel,                             !- Standards Building Type
  Mechanical;                             !- Standards Space Type

OS:Rendering:Color,
  {d5c014e5-f382-4535-b171-c5cb076ce6e3}, !- Handle
  LargeHotel Mechanical,                  !- Name
  41,                                     !- Rendering Red Value
  31,                                     !- Rendering Green Value
  169;                                    !- Rendering Blue Value

OS:SpaceType,
  {58fcaf37-65f7-4256-8cf2-a0679c753c3a}, !- Handle
  LargeHotel Cafe - 90.1-2013,            !- Name
  ,                                       !- Default Construction Set Name
  {a50f1e27-3c4b-4177-8902-b070435d0a28}, !- Default Schedule Set Name
  {99625e95-5cfe-4e7e-b18b-63b30558fe6f}, !- Group Rendering Name
  {bde09ba3-c570-4598-92c8-1a6ab4637468}, !- Design Specification Outdoor Air Object Name
  ,                                       !- Standards Template
  LargeHotel,                             !- Standards Building Type
  Cafe;                                   !- Standards Space Type

OS:Rendering:Color,
  {99625e95-5cfe-4e7e-b18b-63b30558fe6f}, !- Handle
  LargeHotel Cafe,                        !- Name
  31,                                     !- Rendering Red Value
  169,                                    !- Rendering Green Value
  34;                                     !- Rendering Blue Value

OS:SpaceType,
  {e268d9e2-a25f-42ac-917e-6612b4f3e375}, !- Handle
  LargeHotel Banquet - 90.1-2013,         !- Name
  ,                                       !- Default Construction Set Name
  {b3e2f224-c1d8-43af-b3a7-1cc90abb104c}, !- Default Schedule Set Name
  {9bd7e78d-1d3b-4b52-8133-7f92a1569f10}, !- Group Rendering Name
  {df2f1937-ad4e-4d6f-8c51-baf443833c12}, !- Design Specification Outdoor Air Object Name
  ,                                       !- Standards Template
  LargeHotel,                             !- Standards Building Type
  Banquet;                                !- Standards Space Type

OS:Rendering:Color,
  {9bd7e78d-1d3b-4b52-8133-7f92a1569f10}, !- Handle
  LargeHotel Banquet,                     !- Name
  230,                                    !- Rendering Red Value
  196,                                    !- Rendering Green Value
  120;                                    !- Rendering Blue Value

OS:SpaceType,
  {162dd21b-ec09-4ebd-869a-36c49ada3c3e}, !- Handle
  LargeHotel Lobby - 90.1-2013,           !- Name
  ,                                       !- Default Construction Set Name
  {b4cf81a5-ce12-4585-a01d-038d340512be}, !- Default Schedule Set Name
  {57600d1b-a78a-41c7-ba7b-4f498219dcb7}, !- Group Rendering Name
  {717a0245-504d-4c24-bbc5-7a78711a5c39}, !- Design Specification Outdoor Air Object Name
  ,                                       !- Standards Template
  LargeHotel,                             !- Standards Building Type
  Lobby;                                  !- Standards Space Type

OS:Rendering:Color,
  {57600d1b-a78a-41c7-ba7b-4f498219dcb7}, !- Handle
  LargeHotel Lobby,                       !- Name
  230,                                    !- Rendering Red Value
  157,                                    !- Rendering Green Value
  120;                                    !- Rendering Blue Value

OS:SpaceType,
  {913f7966-d0a9-48d6-8f74-7361b75b5499}, !- Handle
  LargeHotel Corridor - 90.1-2013,        !- Name
  ,                                       !- Default Construction Set Name
  {e497173b-248b-4e3c-a9df-b9fa3990a456}, !- Default Schedule Set Name
  {8ddf9618-3e71-4926-a371-e7f57288de57}, !- Group Rendering Name
  {190f1e07-8323-436b-8532-b69757899a5b}, !- Design Specification Outdoor Air Object Name
  ,                                       !- Standards Template
  LargeHotel,                             !- Standards Building Type
  Corridor;                               !- Standards Space Type

OS:Rendering:Color,
  {8ddf9618-3e71-4926-a371-e7f57288de57}, !- Handle
  LargeHotel Corridor,                    !- Name
  169,                                    !- Rendering Red Value
  31,                                     !- Rendering Green Value
  31;                                     !- Rendering Blue Value

OS:SpaceType,
  {52f17622-5ab4-43d9-80f9-8bd46dd99746}, !- Handle
  LargeHotel GuestRoom - 90.1-2013,       !- Name
  ,                                       !- Default Construction Set Name
  {c71f15c9-0c3b-475b-b615-59edbe7e6a88}, !- Default Schedule Set Name
  {bee36eaf-57e1-4971-b2ea-5842bc20930c}, !- Group Rendering Name
  {35d7eb6b-47c4-4abe-8c84-c2005217d2a2}, !- Design Specification Outdoor Air Object Name
  ,                                       !- Standards Template
  LargeHotel,                             !- Standards Building Type
  GuestRoom;                              !- Standards Space Type

OS:Rendering:Color,
  {bee36eaf-57e1-4971-b2ea-5842bc20930c}, !- Handle
  LargeHotel GuestRoom,                   !- Name
  78,                                     !- Rendering Red Value
  167,                                    !- Rendering Green Value
  222;                                    !- Rendering Blue Value

OS:BuildingStory,
  {c5fd4917-a067-4f67-88b2-5b5664087572}, !- Handle
  Story Ground,                           !- Name
  0,                                      !- Nominal Z Coordinate {m}
  3.048,                                  !- Nominal Floor to Floor Height {m}
  ,                                       !- Default Construction Set Name
  ,                                       !- Default Schedule Set Name
  ;                                       !- Group Rendering Name

OS:Space,
  {6a15b6e5-35d6-4188-8534-a13f34601c02}, !- Handle
  LargeHotel Cafe A end_a - Story Ground, !- Name
  {58fcaf37-65f7-4256-8cf2-a0679c753c3a}, !- Space Type Name
  ,                                       !- Default Construction Set Name
  ,                                       !- Default Schedule Set Name
  -0,                                     !- Direction of Relative North {deg}
  -61.1960677136693,                      !- X Origin {m}
  -11.9992289634646,                      !- Y Origin {m}
  0,                                      !- Z Origin {m}
  {c5fd4917-a067-4f67-88b2-5b5664087572}, !- Building Story Name
  {47466d6b-14ac-4775-932c-b01d542243ab}; !- Thermal Zone Name

OS:Surface,
  {cc42533a-c6b9-4e27-83d2-ba98bdcf0760}, !- Handle
  Surface 1,                              !- Name
  Floor,                                  !- Surface Type
  ,                                       !- Construction Name
  {6a15b6e5-35d6-4188-8534-a13f34601c02}, !- Space Name
  Ground,                                 !- Outside Boundary Condition
  ,                                       !- Outside Boundary Condition Object
  NoSun,                                  !- Sun Exposure
  NoWind,                                 !- Wind Exposure
  ,                                       !- View Factor to Ground
  ,                                       !- Number of Vertices
  1.4210854715202e-14, -2.66453525910038e-14, 0, !- X,Y,Z Vertex 1 {m}
  1.4210854715202e-14, 4.572, 0,          !- X,Y,Z Vertex 2 {m}
  4.57200000000002, 4.572, 0,             !- X,Y,Z Vertex 3 {m}
  4.57200000000002, -2.66453525910038e-14, 0; !- X,Y,Z Vertex 4 {m}

OS:Surface,
  {d08baf1c-a7c1-444d-b63d-2c01bfaca768}, !- Handle
  Surface 2,                              !- Name
  Wall,                                   !- Surface Type
  ,                                       !- Construction Name
  {6a15b6e5-35d6-4188-8534-a13f34601c02}, !- Space Name
  Outdoors,                               !- Outside Boundary Condition
  ,                                       !- Outside Boundary Condition Object
  SunExposed,                             !- Sun Exposure
  WindExposed,                            !- Wind Exposure
  ,                                       !- View Factor to Ground
  ,                                       !- Number of Vertices
  1.4210854715202e-14, 4.572, 3.048,      !- X,Y,Z Vertex 1 {m}
  1.4210854715202e-14, 4.572, 0,          !- X,Y,Z Vertex 2 {m}
  1.4210854715202e-14, -2.66453525910038e-14, 0, !- X,Y,Z Vertex 3 {m}
  1.4210854715202e-14, -2.66453525910038e-14, 3.048; !- X,Y,Z Vertex 4 {m}

OS:Surface,
  {b00cfe42-59fb-470b-9420-ec729f931129}, !- Handle
  Surface 3,                              !- Name
  Wall,                                   !- Surface Type
  ,                                       !- Construction Name
  {6a15b6e5-35d6-4188-8534-a13f34601c02}, !- Space Name
  Surface,                                !- Outside Boundary Condition
  {baea28c8-eb93-42c3-bfa4-d0c5d094c01b}, !- Outside Boundary Condition Object
  NoSun,                                  !- Sun Exposure
  NoWind,                                 !- Wind Exposure
  ,                                       !- View Factor to Ground
  ,                                       !- Number of Vertices
  4.57200000000002, 4.572, 3.048,         !- X,Y,Z Vertex 1 {m}
  4.57200000000002, 4.572, 0,             !- X,Y,Z Vertex 2 {m}
  1.4210854715202e-14, 4.572, 0,          !- X,Y,Z Vertex 3 {m}
  1.4210854715202e-14, 4.572, 3.048;      !- X,Y,Z Vertex 4 {m}

OS:Surface,
  {772fe3d7-4b89-4353-96be-3c79ac3ad0b4}, !- Handle
  Surface 4,                              !- Name
  Wall,                                   !- Surface Type
  ,                                       !- Construction Name
  {6a15b6e5-35d6-4188-8534-a13f34601c02}, !- Space Name
  Surface,                                !- Outside Boundary Condition
  {140606e2-b7a9-45ac-bd23-1e2d658c1bc0}, !- Outside Boundary Condition Object
  NoSun,                                  !- Sun Exposure
  NoWind,                                 !- Wind Exposure
  ,                                       !- View Factor to Ground
  ,                                       !- Number of Vertices
  4.57200000000002, -2.66453525910038e-14, 3.048, !- X,Y,Z Vertex 1 {m}
  4.57200000000002, -2.66453525910038e-14, 0, !- X,Y,Z Vertex 2 {m}
  4.57200000000002, 4.572, 0,             !- X,Y,Z Vertex 3 {m}
  4.57200000000002, 4.572, 3.048;         !- X,Y,Z Vertex 4 {m}

OS:Surface,
  {fadbac5b-b1b3-4761-8369-6e5fcd950dab}, !- Handle
  Surface 5,                              !- Name
  Wall,                                   !- Surface Type
  ,                                       !- Construction Name
  {6a15b6e5-35d6-4188-8534-a13f34601c02}, !- Space Name
  Outdoors,                               !- Outside Boundary Condition
  ,                                       !- Outside Boundary Condition Object
  SunExposed,                             !- Sun Exposure
  WindExposed,                            !- Wind Exposure
  ,                                       !- View Factor to Ground
  ,                                       !- Number of Vertices
  1.4210854715202e-14, -2.66453525910038e-14, 3.048, !- X,Y,Z Vertex 1 {m}
  1.4210854715202e-14, -2.66453525910038e-14, 0, !- X,Y,Z Vertex 2 {m}
  4.57200000000002, -2.66453525910038e-14, 0, !- X,Y,Z Vertex 3 {m}
  4.57200000000002, -2.66453525910038e-14, 3.048; !- X,Y,Z Vertex 4 {m}

OS:Surface,
  {ac0f9642-5baf-4e5d-ae24-8912ff70a259}, !- Handle
  Surface 6,                              !- Name
  RoofCeiling,                            !- Surface Type
  {d9687cd8-9206-4204-a368-7ebc74f5aed4}, !- Construction Name
  {6a15b6e5-35d6-4188-8534-a13f34601c02}, !- Space Name
  Adiabatic,                              !- Outside Boundary Condition
  ,                                       !- Outside Boundary Condition Object
  NoSun,                                  !- Sun Exposure
  NoWind,                                 !- Wind Exposure
  ,                                       !- View Factor to Ground
  ,                                       !- Number of Vertices
  4.57200000000002, -2.66453525910038e-14, 3.048, !- X,Y,Z Vertex 1 {m}
  4.57200000000002, 4.572, 3.048,         !- X,Y,Z Vertex 2 {m}
  1.4210854715202e-14, 4.572, 3.048,      !- X,Y,Z Vertex 3 {m}
  1.4210854715202e-14, -2.66453525910038e-14, 3.048; !- X,Y,Z Vertex 4 {m}

OS:ThermalZone,
  {47466d6b-14ac-4775-932c-b01d542243ab}, !- Handle
  Zone LargeHotel Cafe A end_a - Story Ground, !- Name
  1,                                      !- Multiplier
  ,                                       !- Ceiling Height {m}
  ,                                       !- Volume {m3}
  ,                                       !- Floor Area {m2}
  ,                                       !- Zone Inside Convection Algorithm
  ,                                       !- Zone Outside Convection Algorithm
  ,                                       !- Zone Conditioning Equipment List Name
  {0bd44c7b-adef-4353-8976-69ec21af9061}, !- Zone Air Inlet Port List