
OS:Version,
  {80280ac3-17a6-45dd-9c01-f372e4c1faf5}, !- Handle
  3.3.0;                                  !- Version Identifier

OS:Facility,
  {8d40d17b-7065-4bb3-b956-39890e095c3e}; !- Handle

OS:Site,
  {c9db1243-30fe-427f-96a0-1fad2654e18c}, !- Handle
  Buffalo Niagara Intl Ap_NY_USA,         !- Name
  42.93,                                  !- Latitude {deg}
  -78.73,                                 !- Longitude {deg}
  -5,                                     !- Time Zone {hr}
  215,                                    !- Elevation {m}
  City;                                   !- Terrain

OS:SimulationControl,
  {3a8c0425-233d-41cf-9f03-fad5080ede18}, !- Handle
  ,                                       !- Do Zone Sizing Calculation
  ,                                       !- Do System Sizing Calculation
  ,                                       !- Do Plant Sizing Calculation
  No,                                     !- Run Simulation for Sizing Periods
  Yes,                                    !- Run Simulation for Weather File Run Periods
  ,                                       !- Loads Convergence Tolerance Value {W}
  ,                                       !- Temperature Convergence Tolerance Value {deltaC}
  ,                                       !- Solar Distribution
  ,                                       !- Maximum Number of Warmup Days
  ,                                       !- Minimum Number of Warmup Days
  No,                                     !- Do HVAC Sizing Simulation for Sizing Periods
  1;                                      !- Maximum Number of HVAC Sizing Simulation Passes

OS:Sizing:Parameters,
  {69427c91-81ae-471f-8938-66bb80954a3f}, !- Handle
  1.25,                                   !- Heating Sizing Factor
  1.15;                                   !- Cooling Sizing Factor

OS:Timestep,
  {b9eb5716-e9cc-401d-873c-a960d643c9ed}, !- Handle
  1;                                      !- Number of Timesteps per Hour

OS:ShadowCalculation,
  {e1cf9630-04cb-49b2-b6d3-2bbcefb3ba74}, !- Handle
  PolygonClipping,                        !- Shading Calculation Method
  ,                                       !- Shading Calculation Update Frequency Method
  20,                                     !- Shading Calculation Update Frequency
  15000,                                  !- Maximum Figures in Shadow Overlap Calculations
  ,                                       !- Polygon Clipping Algorithm
  512,                                    !- Pixel Counting Resolution
  ,                                       !- Sky Diffuse Modeling Algorithm
  No,                                     !- Output External Shading Calculation Results
  No,                                     !- Disable Self-Shading Within Shading Zone Groups
  No;                                     !- Disable Self-Shading From Shading Zone Groups to Other Zones

OS:HeatBalanceAlgorithm,
  {f6008c54-28d0-4492-8065-ebc3e6540729}, !- Handle
  ConductionTransferFunction,             !- Algorithm
  200;                                    !- Surface Temperature Upper Limit {C}

OS:RunPeriod,
  {e9607b6a-cd18-49cd-ac97-724d7f5338b5}, !- Handle
  Run Period 1,                           !- Name
  1,                                      !- Begin Month
  1,                                      !- Begin Day of Month
  12,                                     !- End Month
  31,                                     !- End Day of Month
  ,                                       !- Use Weather File Holidays and Special Days
  ,                                       !- Use Weather File Daylight Saving Period
  ,                                       !- Apply Weekend Holiday Rule
  ,                                       !- Use Weather File Rain Indicators
  ,                                       !- Use Weather File Snow Indicators
  ;                                       !- Number of Times Runperiod to be Repeated

OS:LifeCycleCost:Parameters,
  {803966f1-f335-46d7-ac0a-e51e6754ae4f}, !- Handle
  ,                                       !- Analysis Type
  ,                                       !- Discounting Convention
  ,                                       !- Inflation Approach
  ,                                       !- Real Discount Rate
  ,                                       !- Nominal Discount Rate
  ,                                       !- Inflation
  ,                                       !- Base Date Month
  ,                                       !- Base Date Year
  ,                                       !- Service Date Month
  ,                                       !- Service Date Year
  ;                                       !- Length of Study Period in Years

OS:YearDescription,
  {873343d4-e3db-457d-b49b-31fa0951779b}, !- Handle
  2017,                                   !- Calendar Year
  ,                                       !- Day of Week for Start Day
  ;                                       !- Is Leap Year

OS:WeatherFile,
  {261c5c2d-355b-40d7-a5c8-278f36af4e87}, !- Handle
  Buffalo Niagara Intl Ap,                !- City
  NY,                                     !- State Province Region
  USA,                                    !- Country
  TMY3,                                   !- Data Source
  725280,                                 !- WMO Number
  42.93,                                  !- Latitude {deg}
  -78.73,                                 !- Longitude {deg}
  -5,                                     !- Time Zone {hr}
  215,                                    !- Elevation {m}
  /Users/dgoldwas/Documents/github/uo/urbanopt-example-geojson-project/example_project/weather/USA_NY_Buffalo-Greater.Buffalo.Intl.AP.725280_TMY3.epw, !- Url
  ;                                       !- Checksum

OS:Site:WaterMainsTemperature,
  {647291d9-76b2-4d75-b0b3-d1fc7c1456e7}, !- Handle
  Correlation,                            !- Calculation Method
  ,                                       !- Temperature Schedule Name
  8.96666666666667,                       !- Annual Average Outdoor Air Temperature {C}
  26.2;                                   !- Maximum Difference In Monthly Average Outdoor Air Temperatures {deltaC}

OS:SizingPeriod:DesignDay,
  {d3b269cd-0c2f-4f53-a448-edc94132f462}, !- Handle
  Buffalo Niagara Intl Ap Ann Clg .4% Condns DB=>MWB 1, !- Name
  30.3,                                   !- Maximum Dry-Bulb Temperature {C}
  9.3,                                    !- Daily Dry-Bulb Temperature Range {deltaC}
  98769,                                  !- Barometric Pressure {Pa}
  5.7,                                    !- Wind Speed {m/s}
  240,                                    !- Wind Direction {deg}
  ,                                       !- Sky Clearness
  No,                                     !- Rain Indicator
  No,                                     !- Snow Indicator
  21,                                     !- Day of Month
  7,                                      !- Month
  SummerDesignDay,                        !- Day Type
  No,                                     !- Daylight Saving Time Indicator
  Wetbulb,                                !- Humidity Condition Type
  ,                                       !- Humidity Condition Day Schedule Name
  21.8,                                   !- Wetbulb or DewPoint at Maximum Dry-Bulb {C}
  ,                                       !- Humidity Ratio at Maximum Dry-Bulb {kgWater/kgDryAir}
  ,                                       !- Enthalpy at Maximum Dry-Bulb {J/kg}
  DefaultMultipliers,                     !- Dry-Bulb Temperature Range Modifier Type
  ,                                       !- Dry-Bulb Temperature Range Modifier Day Schedule Name
  ASHRAETau,                              !- Solar Model Indicator
  ,                                       !- Beam Solar Day Schedule Name
  ,                                       !- Diffuse Solar Day Schedule Name
  0.462,                                  !- ASHRAE Clear Sky Optical Depth for Beam Irradiance {dimensionless}
  2.001;                                  !- ASHRAE Clear Sky Optical Depth for Diffuse Irradiance {dimensionless}

OS:SizingPeriod:DesignDay,
  {c6bf6045-bc5b-4160-9b21-a80bbe327340}, !- Handle
  Buffalo Niagara Intl Ap Ann Clg .4% Condns WB=>MDB 1, !- Name
  27.8,                                   !- Maximum Dry-Bulb Temperature {C}
  9.3,                                    !- Daily Dry-Bulb Temperature Range {deltaC}
  98769,                                  !- Barometric Pressure {Pa}
  5.7,                                    !- Wind Speed {m/s}
  240,                                    !- Wind Direction {deg}
  ,                                       !- Sky Clearness
  No,                                     !- Rain Indicator
  No,                                     !- Snow Indicator
  21,                                     !- Day of Month
  7,                                      !- Month
  SummerDesignDay,                        !- Day Type
  No,                                     !- Daylight Saving Time Indicator
  Wetbulb,                                !- Humidity Condition Type
  ,                                       !- Humidity Condition Day Schedule Name
  23.8,                                   !- Wetbulb or DewPoint at Maximum Dry-Bulb {C}
  ,                                       !- Humidity Ratio at Maximum Dry-Bulb {kgWater/kgDryAir}
  ,                                       !- Enthalpy at Maximum Dry-Bulb {J/kg}
  DefaultMultipliers,                     !- Dry-Bulb Temperature Range Modifier Type
  ,                                       !- Dry-Bulb Temperature Range Modifier Day Schedule Name
  ASHRAETau,                              !- Solar Model Indicator
  ,                                       !- Beam Solar Day Schedule Name
  ,                                       !- Diffuse Solar Day Schedule Name
  0.462,                                  !- ASHRAE Clear Sky Optical Depth for Beam Irradiance {dimensionless}
  2.001;                                  !- ASHRAE Clear Sky Optical Depth for Diffuse Irradiance {dimensionless}

OS:SizingPeriod:DesignDay,
  {f647b33c-8d50-41c3-bc76-3b73448f08f9}, !- Handle
  Buffalo Niagara Intl Ap Ann Htg 99.6% Condns DB 1, !- Name
  -16.3,                                  !- Maximum Dry-Bulb Temperature {C}
  0,                                      !- Daily Dry-Bulb Temperature Range {deltaC}
  98769,                                  !- Barometric Pressure {Pa}
  5.1,                                    !- Wind Speed {m/s}
  270,                                    !- Wind Direction {deg}
  0,                                      !- Sky Clearness
  No,                                     !- Rain Indicator
  No,                                     !- Snow Indicator
  21,                                     !- Day of Month
  1,                                      !- Month
  WinterDesignDay,                        !- Day Type
  No,                                     !- Daylight Saving Time Indicator
  Wetbulb,                                !- Humidity Condition Type
  ,                                       !- Humidity Condition Day Schedule Name
  -16.3,                                  !- Wetbulb or DewPoint at Maximum Dry-Bulb {C}
  ,                                       !- Humidity Ratio at Maximum Dry-Bulb {kgWater/kgDryAir}
  ,                                       !- Enthalpy at Maximum Dry-Bulb {J/kg}
  DefaultMultipliers,                     !- Dry-Bulb Temperature Range Modifier Type
  ,                                       !- Dry-Bulb Temperature Range Modifier Day Schedule Name
  ASHRAEClearSky;                         !- Solar Model Indicator

OS:ClimateZones,
  {ec6862e0-981d-4d19-a82e-58ce37eaf6a5}, !- Handle
  ASHRAE,                                 !- Climate Zone Institution Name 1
  ANSI/ASHRAE Standard 169,               !- Climate Zone Document Name 1
  2006,                                   !- Climate Zone Document Year 1
  6A;                                     !- Climate Zone Value 1

OS:Building,
  {1def73e2-fe6d-4904-a1e8-b73aa95675e2}, !- Handle
  90.1-2013|LargeOffice|FullServiceRestaurant, !- Name
  ,                                       !- Building Sector Type
  ,                                       !- North Axis {deg}
  ,                                       !- Nominal Floor to Floor Height {m}
  ,                                       !- Space Type Name
  {d8549ba4-affd-443a-ac67-3e3528fca04c}, !- Default Construction Set Name
  ,                                       !- Default Schedule Set Name
  ,                                       !- Standards Number of Stories
  ,                                       !- Standards Number of Above Ground Stories
  ,                                       !- Standards Template
  Office;                                 !- Standards Building Type

OS:SpaceType,
  {2138fcbc-9b00-42d9-bce7-ec246ffbd2fb}, !- Handle
  Office OfficeLarge Data Center - 90.1-2013, !- Name
  ,                                       !- Default Construction Set Name
  {2ac84185-f7ff-4b2d-a0c9-f0b93058480d}, !- Default Schedule Set Name
  {33c77d70-442a-4892-8179-c7712d32fcae}, !- Group Rendering Name
  {72876bb8-697f-4e64-9906-d7854b7c490c}, !- Design Specification Outdoor Air Object Name
  ,                                       !- Standards Template
  Office,                                 !- Standards Building Type
  OfficeLarge Data Center;                !- Standards Space Type

OS:Rendering:Color,
  {33c77d70-442a-4892-8179-c7712d32fcae}, !- Handle
  Office OfficeLarge Data Center,         !- Name
  120,                                    !- Rendering Red Value
  230,                                    !- Rendering Green Value
  199;                                    !- Rendering Blue Value

OS:SpaceType,
  {8b752073-d127-4c6f-a8b8-a7e16986bd03}, !- Handle
  Office OfficeLarge Main Data Center - 90.1-2013, !- Name
  ,                                       !- Default Construction Set Name
  {c88de19b-29d7-464e-81f6-260e45c13c4c}, !- Default Schedule Set Name
  {ea6bbe8b-ac80-45b7-9914-f53941a24343}, !- Group Rendering Name
  {3b934ab2-b415-4de0-aa7c-1a28ac93cdc2}, !- Design Specification Outdoor Air Object Name
  ,                                       !- Standards Template
  Office,                                 !- Standards Building Type
  OfficeLarge Main Data Center;           !- Standards Space Type

OS:Rendering:Color,
  {ea6bbe8b-ac80-45b7-9914-f53941a24343}, !- Handle
  Office OfficeLarge Main Data Center,    !- Name
  120,                                    !- Rendering Red Value
  230,                                    !- Rendering Green Value
  199;                                    !- Rendering Blue Value

OS:SpaceType,
  {0c0756a9-32c6-4e4b-b9c3-79d25b48d390}, !- Handle
  Office WholeBuilding - Lg Office - 90.1-2013, !- Name
  ,                                       !- Default Construction Set Name
  {f3e56737-3ce2-410c-8a4d-f5632fa5b80b}, !- Default Schedule Set Name
  {f027e98a-6ffa-4c7d-a6ca-0222a1fe105f}, !- Group Rendering Name
  {8652be2a-ee88-4283-b18b-783b2baa4660}, !- Design Specification Outdoor Air Object Name
  ,                                       !- Standards Template
  Office,                                 !- Standards Building Type
  WholeBuilding - Lg Office;              !- Standards Space Type

OS:Rendering:Color,
  {f027e98a-6ffa-4c7d-a6ca-0222a1fe105f}, !- Handle
  Office WholeBuilding - Lg Office,       !- Name
  120,                                    !- Rendering Red Value
  230,                                    !- Rendering Green Value
  199;                                    !- Rendering Blue Value

OS:SpaceType,
  {1e915f7d-8f9d-4cb1-8e44-4d3fdc887757}, !- Handle
  FullServiceRestaurant Kitchen - 90.1-2013, !- Name
  ,                                       !- Default Construction Set Name
  {b41223b7-ca9f-4827-a385-ce8c3802aa21}, !- Default Schedule Set Name
  {965159b9-ae80-446f-8cc7-7a585dbb45f2}, !- Group Rendering Name
  {0953b2a9-7a56-4533-92da-6a947b1efb39}, !- Design Specification Outdoor Air Object Name
  ,                                       !- Standards Template
  FullServiceRestaurant,                  !- Standards Building Type
  Kitchen;                                !- Standards Space Type

OS:Rendering:Color,
  {965159b9-ae80-446f-8cc7-7a585dbb45f2}, !- Handle
  FullServiceRestaurant Kitchen,          !- Name
  78,                                     !- Rendering Red Value
  222,                                    !- Rendering Green Value
  133;                                    !- Rendering Blue Value

OS:SpaceType,
  {610656bf-4a6e-4a5f-8588-f3d3178ae3b5}, !- Handle
  FullServiceRestaurant Dining - 90.1-2013, !- Name
  ,                                       !- Default Construction Set Name
  {c1f2658a-15c3-4e9c-bd2b-9a071927014f}, !- Default Schedule Set Name
  {fa46bd11-4a42-4de0-a1a3-1cb32d5e4f54}, !- Group Rendering Name
  {f4129531-dbf3-46dc-9551-ac1ba0a7dc8f}, !- Design Specification Outdoor Air Object Name
  ,                                       !- Standards Template
  FullServiceRestaurant,                  !- Standards Building Type
  Dining;                                 !- Standards Space Type

OS:Rendering:Color,
  {fa46bd11-4a42-4de0-a1a3-1cb32d5e4f54}, !- Handle
  FullServiceRestaurant Dining,           !- Name
  31,                                     !- Rendering Red Value
  169,                                    !- Rendering Green Value
  34;                                     !- Rendering Blue Value

OS:BuildingStory,
  {b4ab27b2-2a3a-44e2-bf6a-517eb5483627}, !- Handle
  Story Ground,                           !- Name
  0,                                      !- Nominal Z Coordinate {m}
  3.048,                                  !- Nominal Floor to Floor Height {m}
  ,                                       !- Default Construction Set Name
  ,                                       !- Default Schedule Set Name
  ;                                       !- Group Rendering Name

OS:Space,
  {e6f743aa-6b9a-43c4-997b-53321fefca60}, !- Handle
  FullServiceRestaurant Kitchen A end_a - Story Ground, !- Name
  {1e915f7d-8f9d-4cb1-8e44-4d3fdc887757}, !- Space Type Name
  ,                                       !- Default Construction Set Name
  ,                                       !- Default Schedule Set Name
  -0,                                     !- Direction of Relative North {deg}
  -80.9398968212834,                      !- X Origin {m}
  -53.9599312141889,                      !- Y Origin {m}
  0,                                      !- Z Origin {m}
  {b4ab27b2-2a3a-44e2-bf6a-517eb5483627}, !- Building Story Name
  {24184c66-8fc9-4616-9006-bd21cfc99f48}; !- Thermal Zone Name

OS:Surface,
  {ccf61612-cb41-4091-9710-51c419f72806}, !- Handle
  Surface 1,                              !- Name
  Floor,                                  !- Surface Type
  ,                                       !- Construction Name
  {e6f743aa-6b9a-43c4-997b-53321fefca60}, !- Space Name
  Ground,                                 !- Outside Boundary Condition
  ,                                       !- Outside Boundary Condition Object
  NoSun,                                  !- Sun Exposure
  NoWind,                                 !- Wind Exposure
  ,                                       !- View Factor to Ground
  ,                                       !- Number of Vertices
  -1.4210854715202e-14, 2.8421709430404e-14, 0, !- X,Y,Z Vertex 1 {m}
  -1.4210854715202e-14, 4.57200000000002, 0, !- X,Y,Z Vertex 2 {m}
  4.57199999999999, 4.57200000000002, 0,  !- X,Y,Z Vertex 3 {m}
  4.57199999999999, 2.8421709430404e-14, 0; !- X,Y,Z Vertex 4 {m}

OS:Surface,
  {d5210117-ba45-4009-beeb-a36d0d26179d}, !- Handle
  Surface 2,                              !- Name
  Wall,                                   !- Surface Type
  ,                                       !- Construction Name
  {e6f743aa-6b9a-43c4-997b-53321fefca60}, !- Space Name
  Outdoors,                               !- Outside Boundary Condition
  ,                                       !- Outside Boundary Condition Object
  SunExposed,                             !- Sun Exposure
  WindExposed,                            !- Wind Exposure
  ,                                       !- View Factor to Ground
  ,                                       !- Number of Vertices
  -1.4210854715202e-14, 4.57200000000002, 3.048, !- X,Y,Z Vertex 1 {m}
  -1.4210854715202e-14, 4.57200000000002, 0, !- X,Y,Z Vertex 2 {m}
  -1.4210854715202e-14, 2.8421709430404e-14, 0, !- X,Y,Z Vertex 3 {m}
  -1.4210854715202e-14, 2.8421709430404e-14, 3.048; !- X,Y,Z Vertex 4 {m}

OS:Surface,
  {285e3b49-befa-47d8-9e50-5053db884ad5}, !- Handle
  Surface 3,                              !- Name
  Wall,                                   !- Surface Type
  ,                                       !- Construction Name
  {e6f743aa-6b9a-43c4-997b-53321fefca60}, !- Space Name
  Surface,                                !- Outside Boundary Condition
  {d75ef56f-9b29-40cc-99c6-0065781ce856}, !- Outside Boundary Condition Object
  NoSun,                                  !- Sun Exposure
  NoWind,                                 !- Wind Exposure
  ,                                       !- View Factor to Ground
  ,                                       !- Number of Vertices
  4.57199999999999, 4.57200000000002, 3.048, !- X,Y,Z Vertex 1 {m}
  4.57199999999999, 4.57200000000002, 0,  !- X,Y,Z Vertex 2 {m}
  -1.4210854715202e-14, 4.57200000000002, 0, !- X,Y,Z Vertex 3 {m}
  -1.4210854715202e-14, 4.57200000000002, 3.048; !- X,Y,Z Vertex 4 {m}

OS:Surface,
  {d70c52d6-aab9-44a5-a84c-9ec024374b0c}, !- Handle
  Surface 4,                              !- Name
  Wall,                                   !- Surface Type
  ,                                       !- Construction Name
  {e6f743aa-6b9a-43c4-997b-53321fefca60}, !- Space Name
  Surface,                                !- Outside Boundary Condition
  {4049e7b1-7ee6-4409-915a-9e071a161f5f}, !- Outside Boundary Condition Object
  NoSun,                                  !- Sun Exposure
  NoWind,                                 !- Wind Exposure
  ,                                       !- View Factor to Ground
  ,                                       !- Number of Vertices
  4.57199999999999, 2.8421709430404e-14, 3.048, !- X,Y,Z Vertex 1 {m}
  4.57199999999999, 2.8421709430404e-14, 0, !- X,Y,Z Vertex 2 {m}
  4.57199999999999, 4.57200000000002, 0,  !- X,Y,Z Vertex 3 {m}
  4.57199999999999, 4.57200000000002, 3.048; !- X,Y,Z Vertex 4 {m}

OS:Surface,
  {14b6f16c-03b5-42d8-9fc1-1a34f9d35ea8}, !- Handle
  Surface 5,                              !- Name
  Wall,                                   !- Surface Type
  ,                                       !- Construction Name
  {e6f743aa-6b9a-43c4-997b-53321fefca60}, !- Space Name
  Outdoors,                               !- Outside Boundary Condition
  ,                                       !- Outside Boundary Condition Object
  SunExposed,                             !- Sun Exposure
  WindExposed,                            !- Wind Exposure
  ,                                       !- View Factor to Ground
  ,                                       !- Number of Vertices
  -1.4210854715202e-14, 2.8421709430404e-14, 3.048, !- X,Y,Z Vertex 1 {m}
  -1.4210854715202e-14, 2.8421709430404e-14, 0, !- X,Y,Z Vertex 2 {m}
  4.57199999999999, 2.8421709430404e-14, 0, !- X,Y,Z Vertex 3 {m}
  4.57199999999999, 2.8421709430404e-14, 3.048; !- X,Y,Z Vertex 4 {m}

OS:Surface,
  {b7906d4e-e11f-48f9-82b0-e0cd8afd9c73}, !- Handle
  Surface 6,                              !- Name
  RoofCeiling,                            !- Surface Type
  {dd44cfc4-3371-41f6-a243-a6e1d623840f}, !- Construction Name
  {e6f743aa-6b9a-43c4-997b-53321fefca60}, !- Space Name
  Adiabatic,                              !- Outside Boundary Condition
  ,                                       !- Outside Boundary Condition Object
  NoSun,                                  !- Sun Exposure
  NoWind,                                 !- Wind Exposure
  ,                                       !- View Factor to Ground
  ,                                       !- Number of Vertices
  4.57199999999999, 2.8421709430404e-14, 3.048, !- X,Y,Z Vertex 1 {m}
  4.57199999999999, 4.57200000000002, 3.048, !- X,Y,Z Vertex 2 {m}
  -1.4210854715202e-14, 4.57200000000002, 3.048, !- X,Y,Z Vertex 3 {m}
  -1.4210854715202e-14, 2.8421709430404e-14, 3.048; !- X,Y,Z Vertex 4 {m}

OS:ThermalZone,
  {24184c66-8fc9-4616-9006-bd21cfc99f48}, !- Handle
  Zone FullServiceRestaurant Kitchen A end_a - Story Ground, !- Name
  1,                                      !- Multiplier
  ,                                       !- Ceiling Height {m}
  ,                                       !- Volume {m3}
  ,                                       !- Floor Area {m2}
  ,                                       !- Zone Inside Convection Algorithm
  ,                                       !- Zone Outside Convection Algorithm
  ,                                       !- Zone Conditioning Equipment List Name
  {dd01c31b-faa5-4b08-b6db-fef22b275790}, !- Zone Air Inlet Port List
  {160b3bcf-ac07-40a0-9e87-bc16792178db}, !- Zone Air Exhaust Port List
  {a408a3e1-14de-41f0-a6b0-aefc7ac5d9cf}, !- Zone Air Node Name
  {ed5e6ddf-481d-432e-91fa-8cba69b695fc}, !- Zone Return Air Port List
  ,                                       !- Primary Daylighting Control Name
  ,                                       !- Fraction of Zone Controlled by Primary Daylighting Control
  ,                                       !- Secondary Daylighting Control Name
  ,                                       !- Fraction of Zone Controlled by Secondary Daylighting Control
  ,                                       !- Illuminance Map Name
  ,                                       !- Group Rendering Name
  {367eb3a4-61f0-470f-91ae-6d09496e937b}, !- Thermostat Name
  No;                                     !- Use Ideal Air Loads

OS:Node,
  {234f5bbd-e4f5-4a55-a185-ec30a44950a8}, !- Handle
  Zone FullServiceRestaurant Kitchen A end_a - Story Ground Zone Air Node, !- Name
  {a408a3e1-14de-41f0-a6b0-aefc7ac5d9cf}, !- Inlet Port
  ;                                       !- Outlet Port

OS:Connection,
  {a408a3e1-14de-41f0-a6b0-aefc7ac5d9cf}, !- Handle
  {24184c66-8fc9-4616-9006-bd21cfc99f48}, !- Source Object
  11,                                     !- Outlet Port
  {234f5bbd-e4f5-4a55-a185-ec30a44950a8}, !- Target Object
  2;                                      !- Inlet Port

OS:PortList,
  {dd01c31b-faa5-4b08-b6db-fef22b275790}, !- Handle
  {24184c66-8fc9-4616-9006-bd21cfc99f48}, !- HVAC Component
  {1e3d97ad-03d2-4c10-b6ac-fb311697c45e}; !- Port 1

OS:PortList,
  {160b3bcf-ac07-40a0-9e87-bc16792178db}, !- Handle
  {24184c66-8fc9-4616-9006-bd21cfc99f48}, !- HVAC Component
  {52850303-69bf-40dd-b7db-673543c8b8f1}; !- Port 1

OS:PortList,
  {ed5e6ddf-481d-432e-91fa-8cba69b695fc}, !- Handle
  {24184c66-8fc9-4616-9006-bd21cfc99f48}, !- HVAC Component
  {7d1bc567-d50c-4592-9968-e58721aca57d}; !- Port 1

OS:Sizing:Zone,
  {5b3474d1-2895-426c-9c57-ba0147c15007}, !- Handle
  {24184c66-8fc9-4616-9006-bd21cfc99f48}, !- Zone or ZoneList Name
  SupplyAirTemperature,                   !- Zone Cooling Design Supply Air Temperature Input Method
  12.7777777777778,                       !- Zone Cooling Design Supply Air Temperature {C}
  11.11,                                  !- Zone Cooling Design Supply Air Temperature Difference {deltaC}
  SupplyAirTemperature,                   !- Zone Heating Design Supply Air Temperature Input Method
  50.0000000000001,                       !- Zone Heating Design Supply Air Temperature {C}
  11.11,                                  !- Zone Heating Design Supply Air Temperature Difference {deltaC}
  0.0085,                                 !- Zone Cooling Design Supply Air Humidity Ratio {kg-H2O/kg-air}
  0.008,                                  !- Zone Heating Design Supply Air Humidity Ratio {kg-H2O/kg-air}
  ,                                       !- Zone Heating Sizing Factor
  ,                                       !- Zone Cooling Sizing Factor
  DesignDay,                              !- Cooling Design Air Flow Method
  ,                                       !- Cooling Design Air Flow Rate {m3/s}
  ,                                       !- Cooling Minimum Air Flow per Zone Floor Area {m3/s-m2}
  ,                                       !- Cooling Minimum Air Flow {m3/s}
  ,                                       !- Cooling Minimum Air Flow Fraction
  DesignDay,                              !- Heating Design Air Flow Method
  ,                                       !- Heating Design Air Flow Rate {m3/s}
  ,                                       !- Heating Maximum Air Flow per Zone Floor Area {m3/s-m2}
  ,                                       !- Heating Maximum Air Flow {m3/s}
  ,                                       !- Heating Maximum Air Flow Fraction
  No,                                     !- Account for Dedicated Outdoor Air System
  NeutralSupplyAir,                       !- Dedicated Outdoor Air System Control Strategy
  autosize,                               !- Dedicated Outdoor Air Low Setpoint Temperature for Design {C}
  autosize;                               !- Dedicated Outdoor Air High Setpoint Temperature for Design {C}

OS:ZoneHVAC:EquipmentList,
  {e2568180-daf8-4f50-a14f-23238060c408}, !- Handle
  Zone FullServiceRestaurant Kitchen A end_a - Story Ground Zone HVAC Equipment List, !- Name
  {24184c66-8fc9-4616-9006-bd21cfc99f48}, !- Thermal Zone
  ,                                       !- Load Distribution Scheme
  {e0354daf-86c8-48e3-a05c-f0d2be0bf228}, !- Zone Equipment 1