
OS:Version,
  {6991bf73-c470-47ba-97e1-4721bfe5e52e}, !- Handle
  3.3.0;                                  !- Version Identifier

OS:Facility,
  {f752841c-b5a4-47c1-8e4a-97c30f1913bb}; !- Handle

OS:Site,
  {be0154ce-8c6a-4a6b-9dda-7b88a4c4ff46}, !- Handle
  Buffalo Niagara Intl Ap_NY_USA,         !- Name
  42.93,                                  !- Latitude {deg}
  -78.73,                                 !- Longitude {deg}
  -5,                                     !- Time Zone {hr}
  215,                                    !- Elevation {m}
  City;                                   !- Terrain

OS:SimulationControl,
  {bc1a6188-a2b3-4dd2-9cbd-cd44ab1bb14d}, !- Handle
  ,                                       !- Do Zone Sizing Calculation
  ,                                       !- Do System Sizing Calculation
  ,                                       !- Do Plant Sizing Calculation
  No,                                     !- Run Simulation for Sizing Periods
  Yes,                                    !- Run Simulation for Weather File Run Periods
  ,                                       !- Loads Convergence Tolerance Value {W}
  ,                                       !- Temperature Convergence Tolerance Value {deltaC}
  ,                                       !- Solar Distribution
  ,                                       !- Maximum Number of Warmup Days
  ,                                       !- Minimum Number of Warmup Days
  No,                                     !- Do HVAC Sizing Simulation for Sizing Periods
  1;                                      !- Maximum Number of HVAC Sizing Simulation Passes

OS:Sizing:Parameters,
  {c8547017-8f80-43c4-aef2-6f5f06ec56b0}, !- Handle
  1.25,                                   !- Heating Sizing Factor
  1.15;                                   !- Cooling Sizing Factor

OS:Timestep,
  {dadb0423-cd52-4358-9bb7-d9d176082cd3}, !- Handle
  1;                                      !- Number of Timesteps per Hour

OS:ShadowCalculation,
  {6e5914b3-9cde-4994-bc64-92397b338d40}, !- Handle
  PolygonClipping,                        !- Shading Calculation Method
  ,                                       !- Shading Calculation Update Frequency Method
  20,                                     !- Shading Calculation Update Frequency
  15000,                                  !- Maximum Figures in Shadow Overlap Calculations
  ,                                       !- Polygon Clipping Algorithm
  512,                                    !- Pixel Counting Resolution
  ,                                       !- Sky Diffuse Modeling Algorithm
  No,                                     !- Output External Shading Calculation Results
  No,                                     !- Disable Self-Shading Within Shading Zone Groups
  No;                                     !- Disable Self-Shading From Shading Zone Groups to Other Zones

OS:HeatBalanceAlgorithm,
  {cf43db43-0ce7-4858-b140-aedd16b15b73}, !- Handle
  ConductionTransferFunction,             !- Algorithm
  200;                                    !- Surface Temperature Upper Limit {C}

OS:RunPeriod,
  {07ad6da2-8248-4b2d-95e3-e86555062fc4}, !- Handle
  Run Period 1,                           !- Name
  1,                                      !- Begin Month
  1,                                      !- Begin Day of Month
  12,                                     !- End Month
  31,                                     !- End Day of Month
  ,                                       !- Use Weather File Holidays and Special Days
  ,                                       !- Use Weather File Daylight Saving Period
  ,                                       !- Apply Weekend Holiday Rule
  ,                                       !- Use Weather File Rain Indicators
  ,                                       !- Use Weather File Snow Indicators
  ;                                       !- Number of Times Runperiod to be Repeated

OS:LifeCycleCost:Parameters,
  {d9acd6d0-103a-4aad-b521-0e56ea03d33d}, !- Handle
  ,                                       !- Analysis Type
  ,                                       !- Discounting Convention
  ,                                       !- Inflation Approach
  ,                                       !- Real Discount Rate
  ,                                       !- Nominal Discount Rate
  ,                                       !- Inflation
  ,                                       !- Base Date Month
  ,                                       !- Base Date Year
  ,                                       !- Service Date Month
  ,                                       !- Service Date Year
  ;                                       !- Length of Study Period in Years

OS:YearDescription,
  {34d52e70-cc12-4073-abab-8e7a46b5e6a4}, !- Handle
  2017,                                   !- Calendar Year
  ,                                       !- Day of Week for Start Day
  ;                                       !- Is Leap Year

OS:WeatherFile,
  {5d428a14-95e7-4efa-86b2-fb710a01658f}, !- Handle
  Buffalo Niagara Intl Ap,                !- City
  NY,                                     !- State Province Region
  USA,                                    !- Country
  TMY3,                                   !- Data Source
  725280,                                 !- WMO Number
  42.93,                                  !- Latitude {deg}
  -78.73,                                 !- Longitude {deg}
  -5,                                     !- Time Zone {hr}
  215,                                    !- Elevation {m}
  /Users/dgoldwas/Documents/github/uo/urbanopt-example-geojson-project/example_project/weather/USA_NY_Buffalo-Greater.Buffalo.Intl.AP.725280_TMY3.epw, !- Url
  ;                                       !- Checksum

OS:Site:WaterMainsTemperature,
  {ce94a4b8-d570-4625-b523-5f17946bf064}, !- Handle
  Correlation,                            !- Calculation Method
  ,                                       !- Temperature Schedule Name
  8.96666666666667,                       !- Annual Average Outdoor Air Temperature {C}
  26.2;                                   !- Maximum Difference In Monthly Average Outdoor Air Temperatures {deltaC}

OS:SizingPeriod:DesignDay,
  {1ebeb8f9-7b5d-4bb4-af65-430183486bf7}, !- Handle
  Buffalo Niagara Intl Ap Ann Clg .4% Condns DB=>MWB 1, !- Name
  30.3,                                   !- Maximum Dry-Bulb Temperature {C}
  9.3,                                    !- Daily Dry-Bulb Temperature Range {deltaC}
  98769,                                  !- Barometric Pressure {Pa}
  5.7,                                    !- Wind Speed {m/s}
  240,                                    !- Wind Direction {deg}
  ,                                       !- Sky Clearness
  No,                                     !- Rain Indicator
  No,                                     !- Snow Indicator
  21,                                     !- Day of Month
  7,                                      !- Month
  SummerDesignDay,                        !- Day Type
  No,                                     !- Daylight Saving Time Indicator
  Wetbulb,                                !- Humidity Condition Type
  ,                                       !- Humidity Condition Day Schedule Name
  21.8,                                   !- Wetbulb or DewPoint at Maximum Dry-Bulb {C}
  ,                                       !- Humidity Ratio at Maximum Dry-Bulb {kgWater/kgDryAir}
  ,                                       !- Enthalpy at Maximum Dry-Bulb {J/kg}
  DefaultMultipliers,                     !- Dry-Bulb Temperature Range Modifier Type
  ,                                       !- Dry-Bulb Temperature Range Modifier Day Schedule Name
  ASHRAETau,                              !- Solar Model Indicator
  ,                                       !- Beam Solar Day Schedule Name
  ,                                       !- Diffuse Solar Day Schedule Name
  0.462,                                  !- ASHRAE Clear Sky Optical Depth for Beam Irradiance {dimensionless}
  2.001;                                  !- ASHRAE Clear Sky Optical Depth for Diffuse Irradiance {dimensionless}

OS:SizingPeriod:DesignDay,
  {e2a58490-3d19-4fe7-bce5-337e50b208b2}, !- Handle
  Buffalo Niagara Intl Ap Ann Clg .4% Condns WB=>MDB 1, !- Name
  27.8,                                   !- Maximum Dry-Bulb Temperature {C}
  9.3,                                    !- Daily Dry-Bulb Temperature Range {deltaC}
  98769,                                  !- Barometric Pressure {Pa}
  5.7,                                    !- Wind Speed {m/s}
  240,                                    !- Wind Direction {deg}
  ,                                       !- Sky Clearness
  No,                                     !- Rain Indicator
  No,                                     !- Snow Indicator
  21,                                     !- Day of Month
  7,                                      !- Month
  SummerDesignDay,                        !- Day Type
  No,                                     !- Daylight Saving Time Indicator
  Wetbulb,                                !- Humidity Condition Type
  ,                                       !- Humidity Condition Day Schedule Name
  23.8,                                   !- Wetbulb or DewPoint at Maximum Dry-Bulb {C}
  ,                                       !- Humidity Ratio at Maximum Dry-Bulb {kgWater/kgDryAir}
  ,                                       !- Enthalpy at Maximum Dry-Bulb {J/kg}
  DefaultMultipliers,                     !- Dry-Bulb Temperature Range Modifier Type
  ,                                       !- Dry-Bulb Temperature Range Modifier Day Schedule Name
  ASHRAETau,                              !- Solar Model Indicator
  ,                                       !- Beam Solar Day Schedule Name
  ,                                       !- Diffuse Solar Day Schedule Name
  0.462,                                  !- ASHRAE Clear Sky Optical Depth for Beam Irradiance {dimensionless}
  2.001;                                  !- ASHRAE Clear Sky Optical Depth for Diffuse Irradiance {dimensionless}

OS:SizingPeriod:DesignDay,
  {c5c0bac3-5f00-4ca7-a16b-2c78a626b46b}, !- Handle
  Buffalo Niagara Intl Ap Ann Htg 99.6% Condns DB 1, !- Name
  -16.3,                                  !- Maximum Dry-Bulb Temperature {C}
  0,                                      !- Daily Dry-Bulb Temperature Range {deltaC}
  98769,                                  !- Barometric Pressure {Pa}
  5.1,                                    !- Wind Speed {m/s}
  270,                                    !- Wind Direction {deg}
  0,                                      !- Sky Clearness
  No,                                     !- Rain Indicator
  No,                                     !- Snow Indicator
  21,                                     !- Day of Month
  1,                                      !- Month
  WinterDesignDay,                        !- Day Type
  No,                                     !- Daylight Saving Time Indicator
  Wetbulb,                                !- Humidity Condition Type
  ,                                       !- Humidity Condition Day Schedule Name
  -16.3,                                  !- Wetbulb or DewPoint at Maximum Dry-Bulb {C}
  ,                                       !- Humidity Ratio at Maximum Dry-Bulb {kgWater/kgDryAir}
  ,                                       !- Enthalpy at Maximum Dry-Bulb {J/kg}
  DefaultMultipliers,                     !- Dry-Bulb Temperature Range Modifier Type
  ,                                       !- Dry-Bulb Temperature Range Modifier Day Schedule Name
  ASHRAEClearSky;                         !- Solar Model Indicator

OS:ClimateZones,
  {4dcc9a6b-1674-4898-977a-d6128a2d06cb}, !- Handle
  ASHRAE,                                 !- Climate Zone Institution Name 1
  ANSI/ASHRAE Standard 169,               !- Climate Zone Document Name 1
  2006,                                   !- Climate Zone Document Year 1
  6A;                                     !- Climate Zone Value 1

OS:Building,
  {ee487725-16ee-45a8-b3c5-a40e71b961b7}, !- Handle
  90.1-2013|RetailStripmall,              !- Name
  ,                                       !- Building Sector Type
  ,                                       !- North Axis {deg}
  ,                                       !- Nominal Floor to Floor Height {m}
  ,                                       !- Space Type Name
  {ddbd959d-238e-47e6-8066-20abd768b083}, !- Default Construction Set Name
  ,                                       !- Default Schedule Set Name
  ,                                       !- Standards Number of Stories
  ,                                       !- Standards Number of Above Ground Stories
  ,                                       !- Standards Template
  StripMall;                              !- Standards Building Type

OS:SpaceType,
  {8564443b-b778-4362-a934-2806babb17cd}, !- Handle
  StripMall Strip mall - type 1 - 90.1-2013, !- Name
  ,                                       !- Default Construction Set Name
  {55b829e6-2347-4bf2-97d7-8c277d976e54}, !- Default Schedule Set Name
  {f94f4865-2587-4dc1-8519-54b0ecf3f529}, !- Group Rendering Name
  {835bd4f2-71dd-48d7-b6bd-21f394b1a1e7}, !- Design Specification Outdoor Air Object Name
  ,                                       !- Standards Template
  StripMall,                              !- Standards Building Type
  Strip mall - type 1;                    !- Standards Space Type

OS:Rendering:Color,
  {f94f4865-2587-4dc1-8519-54b0ecf3f529}, !- Handle
  StripMall Strip mall - type 1,          !- Name
  171,                                    !- Rendering Red Value
  222,                                    !- Rendering Green Value
  78;                                     !- Rendering Blue Value

OS:SpaceType,
  {21dfd67e-77f5-4a39-98a6-b2a9c8f284f8}, !- Handle
  StripMall Strip mall - type 2 - 90.1-2013, !- Name
  ,                                       !- Default Construction Set Name
  {b15c9fcc-1846-4ed4-ad26-787ec880aedb}, !- Default Schedule Set Name
  {6f5fd223-f8b6-43c3-89cd-9e4ad7ab8112}, !- Group Rendering Name
  {32ff1b10-afc4-4f81-8f03-3335d6ec80a9}, !- Design Specification Outdoor Air Object Name
  ,                                       !- Standards Template
  StripMall,                              !- Standards Building Type
  Strip mall - type 2;                    !- Standards Space Type

OS:Rendering:Color,
  {6f5fd223-f8b6-43c3-89cd-9e4ad7ab8112}, !- Handle
  StripMall Strip mall - type 2,          !- Name
  171,                                    !- Rendering Red Value
  222,                                    !- Rendering Green Value
  78;                                     !- Rendering Blue Value

OS:SpaceType,
  {37368515-6a8e-4101-9da8-61dc86ece11a}, !- Handle
  StripMall Strip mall - type 3 - 90.1-2013, !- Name
  ,                                       !- Default Construction Set Name
  {49d0b8ed-cd5f-414f-afee-4b87df5c8a90}, !- Default Schedule Set Name
  {734dac53-2c3d-4c16-b0ad-586ebb8032f2}, !- Group Rendering Name
  {a1108afa-f43d-463a-9eed-241c38a0a95b}, !- Design Specification Outdoor Air Object Name
  ,                                       !- Standards Template
  StripMall,                              !- Standards Building Type
  Strip mall - type 3;                    !- Standards Space Type

OS:Rendering:Color,
  {734dac53-2c3d-4c16-b0ad-586ebb8032f2}, !- Handle
  StripMall Strip mall - type 3,          !- Name
  171,                                    !- Rendering Red Value
  222,                                    !- Rendering Green Value
  78;                                     !- Rendering Blue Value

OS:BuildingStory,
  {07ec3cbd-70ea-4487-845d-8db3d0465572}, !- Handle
  Story Ground,                           !- Name
  0,                                      !- Nominal Z Coordinate {m}
  3.048,                                  !- Nominal Floor to Floor Height {m}
  ,                                       !- Default Construction Set Name
  ,                                       !- Default Schedule Set Name
  ;                                       !- Group Rendering Name

OS:Space,
  {b17223b6-972b-4e46-8518-31d607c7b625}, !- Handle
  StripMall Strip mall - type 1 A end_a - Story Ground, !- Name
  {8564443b-b778-4362-a934-2806babb17cd}, !- Space Type Name
  ,                                       !- Default Construction Set Name
  ,                                       !- Default Schedule Set Name
  -0,                                     !- Direction of Relative North {deg}
  -107.678122667142,                      !- X Origin {m}
  -26.9195306667854,                      !- Y Origin {m}
  0,                                      !- Z Origin {m}
  {07ec3cbd-70ea-4487-845d-8db3d0465572}, !- Building Story Name
  {82ddbce8-af4c-4268-a128-8359b179609c}; !- Thermal Zone Name

OS:Surface,
  {5fac3b37-4913-4dc3-b7cf-6431a5a9ba20}, !- Handle
  Surface 1,                              !- Name
  Floor,                                  !- Surface Type
  ,                                       !- Construction Name
  {b17223b6-972b-4e46-8518-31d607c7b625}, !- Space Name
  Ground,                                 !- Outside Boundary Condition
  ,                                       !- Outside Boundary Condition Object
  NoSun,                                  !- Sun Exposure
  NoWind,                                 !- Wind Exposure
  ,                                       !- View Factor to Ground
  ,                                       !- Number of Vertices
  -3.69482222595252e-13, 1.06581410364015e-14, 0, !- X,Y,Z Vertex 1 {m}
  -3.69482222595252e-13, 4.57200000000001, 0, !- X,Y,Z Vertex 2 {m}
  4.57199999999963, 4.57200000000001, 0,  !- X,Y,Z Vertex 3 {m}
  4.57199999999963, 1.06581410364015e-14, 0; !- X,Y,Z Vertex 4 {m}

OS:Surface,
  {d37322eb-0e2e-4d74-a09b-817d352d56dc}, !- Handle
  Surface 2,                              !- Name
  Wall,                                   !- Surface Type
  ,                                       !- Construction Name
  {b17223b6-972b-4e46-8518-31d607c7b625}, !- Space Name
  Outdoors,                               !- Outside Boundary Condition
  ,                                       !- Outside Boundary Condition Object
  SunExposed,                             !- Sun Exposure
  WindExposed,                            !- Wind Exposure
  ,                                       !- View Factor to Ground
  ,                                       !- Number of Vertices
  -3.69482222595252e-13, 4.57200000000001, 3.048, !- X,Y,Z Vertex 1 {m}
  -3.69482222595252e-13, 4.57200000000001, 0, !- X,Y,Z Vertex 2 {m}
  -3.69482222595252e-13, 1.06581410364015e-14, 0, !- X,Y,Z Vertex 3 {m}
  -3.69482222595252e-13, 1.06581410364015e-14, 3.048; !- X,Y,Z Vertex 4 {m}

OS:Surface,
  {b9c7c67a-4bb0-4b02-a249-015fdd219974}, !- Handle
  Surface 3,                              !- Name
  Wall,                                   !- Surface Type
  ,                                       !- Construction Name
  {b17223b6-972b-4e46-8518-31d607c7b625}, !- Space Name
  Surface,                                !- Outside Boundary Condition
  {04e84e18-a8e7-40d0-ba11-63e8f0f431f5}, !- Outside Boundary Condition Object
  NoSun,                                  !- Sun Exposure
  NoWind,                                 !- Wind Exposure
  ,                                       !- View Factor to Ground
  ,                                       !- Number of Vertices
  4.57199999999963, 4.57200000000001, 3.048, !- X,Y,Z Vertex 1 {m}
  4.57199999999963, 4.57200000000001, 0,  !- X,Y,Z Vertex 2 {m}
  -3.69482222595252e-13, 4.57200000000001, 0, !- X,Y,Z Vertex 3 {m}
  -3.69482222595252e-13, 4.57200000000001, 3.048; !- X,Y,Z Vertex 4 {m}

OS:Surface,
  {86711309-9dd7-4ff6-85eb-7e5301eeab3b}, !- Handle
  Surface 4,                              !- Name
  Wall,                                   !- Surface Type
  ,                                       !- Construction Name
  {b17223b6-972b-4e46-8518-31d607c7b625}, !- Space Name
  Surface,                                !- Outside Boundary Condition
  {bd3ca21e-3ce1-4835-a726-4c8c27fff541}, !- Outside Boundary Condition Object
  NoSun,                                  !- Sun Exposure
  NoWind,                                 !- Wind Exposure
  ,                                       !- View Factor to Ground
  ,                                       !- Number of Vertices
  4.57199999999963, 1.06581410364015e-14, 3.048, !- X,Y,Z Vertex 1 {m}
  4.57199999999963, 1.06581410364015e-14, 0, !- X,Y,Z Vertex 2 {m}
  4.57199999999963, 4.57200000000001, 0,  !- X,Y,Z Vertex 3 {m}
  4.57199999999963, 4.57200000000001, 3.048; !- X,Y,Z Vertex 4 {m}

OS:Surface,
  {e6ff8684-5b8c-4542-af5d-adfec60211c6}, !- Handle
  Surface 5,                              !- Name
  Wall,                                   !- Surface Type
  ,                                       !- Construction Name
  {b17223b6-972b-4e46-8518-31d607c7b625}, !- Space Name
  Outdoors,                               !- Outside Boundary Condition
  ,                                       !- Outside Boundary Condition Object
  SunExposed,                             !- Sun Exposure
  WindExposed,                            !- Wind Exposure
  ,                                       !- View Factor to Ground
  ,                                       !- Number of Vertices
  -3.69482222595252e-13, 1.06581410364015e-14, 3.048, !- X,Y,Z Vertex 1 {m}
  -3.69482222595252e-13, 1.06581410364015e-14, 0, !- X,Y,Z Vertex 2 {m}
  4.57199999999963, 1.06581410364015e-14, 0, !- X,Y,Z Vertex 3 {m}
  4.57199999999963, 1.06581410364015e-14, 3.048; !- X,Y,Z Vertex 4 {m}

OS:Surface,
  {81c06e63-a439-4c19-a494-fb272c6e00b4}, !- Handle
  Surface 6,                              !- Name
  RoofCeiling,                            !- Surface Type
  {044ce789-504f-4b27-b834-70e862ff7653}, !- Construction Name
  {b17223b6-972b-4e46-8518-31d607c7b625}, !- Space Name
  Adiabatic,                              !- Outside Boundary Condition
  ,                                       !- Outside Boundary Condition Object
  NoSun,                                  !- Sun Exposure
  NoWind,                                 !- Wind Exposure
  ,                                       !- View Factor to Ground
  ,                                       !- Number of Vertices
  4.57199999999963, 1.06581410364015e-14, 3.048, !- X,Y,Z Vertex 1 {m}
  4.57199999999963, 4.57200000000001, 3.048, !- X,Y,Z Vertex 2 {m}
  -3.69482222595252e-13, 4.57200000000001, 3.048, !- X,Y,Z Vertex 3 {m}
  -3.69482222595252e-13, 1.06581410364015e-14, 3.048; !- X,Y,Z Vertex 4 {m}

OS:ThermalZone,
  {82ddbce8-af4c-4268-a128-8359b179609c}, !- Handle
  Zone StripMall Strip mall - type 1 A end_a - Story Ground, !- Name
  1,                                      !- Multiplier
  ,                                       !- Ceiling Height {m}
  ,                                       !- Volume {m3}
  ,                                       !- Floor Area {m2}
  ,                                       !- Zone Inside Convection Algorithm
  ,                                       !- Zone Outside Convection Algorithm
  ,                                       !- Zone Conditioning Equipment List Name
  {d93c1555-1536-40b5-a0df-abe1ecdbda51}, !- Zone Air Inlet Port List
  {5a598d57-e1e4-4229-b52e-dc5a69e3b02c}, !- Zone Air Exhaust Port List
  {e6949d75-d8b7-441a-a6a1-8d5dd0b41fe1}, !- Zone Air Node Name
  {c4a40e03-02a7-436f-b1f3-81c593f146ce}, !- Zone Return Air Port List
  ,                                       !- Primary Daylighting Control Name
  ,                                       !- Fraction of Zone Controlled by Primary Daylighting Control
  ,                                       !- Secondary Daylighting Control Name
  ,                                       !- Fraction of Zone Controlled by Secondary Daylighting Control
  ,                                       !- Illuminance Map Name
  ,                                       !- Group Rendering Name
  {1a7b788e-ee69-4810-a375-8fbab37c4f58}, !- Thermostat Name
  No;                                     !- Use Ideal Air Loads

OS:Node,
  {f87cf047-519d-4225-85c4-734de0f63290}, !- Handle
  Zone StripMall Strip mall - type 1 A end_a - Story Ground Zone Air Node, !- Name
  {e6949d75-d8b7-441a-a6a1-8d5dd0b41fe1}, !- Inlet Port
  ;                                       !- Outlet Port

OS:Connection,
  {e6949d75-d8b7-441a-a6a1-8d5dd0b41fe1}, !- Handle
  {82ddbce8-af4c-4268-a128-8359b179609c}, !- Source Object
  11,                                     !- Outlet Port
  {f87cf047-519d-4225-85c4-734de0f63290}, !- Target Object
  2;                                      !- Inlet Port

OS:PortList,
  {d93c1555-1536-40b5-a0df-abe1ecdbda51}, !- Handle
  {82ddbce8-af4c-4268-a128-8359b179609c}, !- HVAC Component
  {3a0523dc-1141-4852-8a53-e547827d2706}; !- Port 1

OS:PortList,
  {5a598d57-e1e4-4229-b52e-dc5a69e3b02c}, !- Handle
  {82ddbce8-af4c-4268-a128-8359b179609c}; !- HVAC Component

OS:PortList,
  {c4a40e03-02a7-436f-b1f3-81c593f146ce}, !- Handle
  {82ddbce8-af4c-4268-a128-8359b179609c}, !- HVAC Component
  {8262acdf-f1dc-4a58-a3ca-1fc2cea0baac}; !- Port 1

OS:Sizing:Zone,
  {1c275294-db19-48a1-b88d-2a41928eb992}, !- Handle
  {82ddbce8-af4c-4268-a128-8359b179609c}, !- Zone or ZoneList Name
  SupplyAirTemperature,                   !- Zone Cooling Design Supply Air Temperature Input Method
  12.7777777777778,                       !- Zone Cooling Design Supply Air Temperature {C}
  11.11,                                  !- Zone Cooling Design Supply Air Temperature Difference {deltaC}
  SupplyAirTemperature,                   !- Zone Heating Design Supply Air Temperature Input Method
  40.0000000000001,                       !- Zone Heating Design Supply Air Temperature {C}
  11.11,                                  !- Zone Heating Design Supply Air Temperature Difference {deltaC}
  0.0085,                                 !- Zone Cooling Design Supply Air Humidity Ratio {kg-H2O/kg-air}
  0.008,                                  !- Zone Heating Design Supply Air Humidity Ratio {kg-H2O/kg-air}
  ,                                       !- Zone Heating Sizing Factor
  ,                                       !- Zone Cooling Sizing Factor
  DesignDayWithLimit,                     !- Cooling Design Air Flow Method
  ,                                       !- Cooling Design Air Flow Rate {m3/s}
  ,                                       !- Cooling Minimum Air Flow per Zone Floor Area {m3/s-m2}
  ,                                       !- Cooling Minimum Air Flow {m3/s}
  ,                                       !- Cooling Minimum Air Flow Fraction
  DesignDay,                              !- Heating Design Air Flow Method
  ,                                       !- Heating Design Air Flow Rate {m3/s}
  ,                                       !- Heating Maximum Air Flow per Zone Floor Area {m3/s-m2}
  ,                                       !- Heating Maximum Air Flow {m3/s}
  ,                                       !- Heating Maximum Air Flow Fraction
  No,                                     !- Account for Dedicated Outdoor Air System
  NeutralSupplyAir,                       !- Dedicated Outdoor Air System Control Strategy
  autosize,                               !- Dedicated Outdoor Air Low Setpoint Temperature for Design {C}
  autosize,                               !- Dedicated Outdoor Air High Setpoint Temperature for Design {C}
  ,                                       !- Design Zone Air Distribution Effectiveness in Cooling Mode
  ,                                       !- Design Zone Air Distribution Effectiveness in Heating Mode
  ,                                       !- Design Zone Secondary Recirculation Fraction {dimensionless}
  0.6;                                    !- Design Minimum Zone Ventilation Efficiency {dimensionless}

OS:ZoneHVAC:EquipmentList,
  {f8e418c7-9763-4a24-8191-3ca2e0985dc1}, !- Handle
  Zone StripMall Strip mall - type 1 A end_a - Story Ground Zone HVAC Equipment List, !- Name
  {82ddbce8-af4c-4268-a128-8359b179609c}, !- Thermal Zone
  ,                                       !- Load Distribution Scheme
  {21aea9f7-bda0-4def-9e76-41f4843b61ef}, !- Zone Equipment 1
  1,                                      !- Zone Equipment Cooling Sequence 1
  1,                                      !- Zone Equipment Heating or No-Load Sequence 1
  ,                                       !- Zone Equipment Sequential Cooling Fraction Schedule Name 1
  ;                                       !- Zone Equipment Sequential Heating Fraction Schedule Name 1

OS:Space,
  {de594e8e-fc60-48f5-a0c9-3f1c66a631f6}, !- Handle
  StripMall Strip mall - type 1 B end_a - Story Ground, !- Name
  {8564443b-b778-4362-a934-2806babb17cd}, !- Space Type Name
  ,                                       !- Default Construction Set Name
  ,                                       !- Default Schedule Set Name
  -0,                                     !- Direction of Relative North {deg}
  -107.678122667142,                      !- X Origin {m}
  -22.3475306667854,                      !- Y Origin {m}
  0,                                      !- Z Origin {m}
  {07ec3cbd-70ea-4487-845d-8db3d0465572}, !- Building Story Name
  {1c759aa8-44da-4109-9595-0701745d01fa}; !- Thermal Zone Name

OS:Surface,
  {976d93d0-c9bd-468b-a596-736290a73f4e}, !- Handle
  Surface 7,                              !- Name
  Floor,                                  !- Surface Type
  ,                                       !- Construction Name
  {de594e8e-fc60-48f5-a0c9-3f1c66a631f6}, !- Space Name
  Ground,                                 !- Outside Boundary Condition
  ,                                       !- Outside Boundary Condition Object