
OS:Version,
  {8e8147ef-4b90-4386-b0de-41ff70935357}, !- Handle
  2.8.1;                                  !- Version Identifier

OS:ScheduleTypeLimits,
  {115aba64-18e9-477b-9f56-bc49f71a3d65}, !- Handle
  ActivityLevel,                          !- Name
  0,                                      !- Lower Limit Value
  ,                                       !- Upper Limit Value
  Continuous,                             !- Numeric Type
  ActivityLevel;                          !- Unit Type

OS:Building,
  {161a51f0-9700-4aa1-8ba8-f2513d0eecae}, !- Handle
  Building 1,                             !- Name
  ,                                       !- Building Sector Type
  ,                                       !- North Axis {deg}
  ,                                       !- Nominal Floor to Floor Height {m}
  ,                                       !- Space Type Name
  {80934320-cb33-4eb3-a72f-aff38d4af9d3}, !- Default Construction Set Name
  ,                                       !- Default Schedule Set Name
  ,                                       !- Standards Number of Stories
  ,                                       !- Standards Number of Above Ground Stories
  ,                                       !- Standards Template
  Office,                                 !- Standards Building Type
  ,                                       !- Standards Number of Living Units
  ,                                       !- Relocatable
  ;                                       !- Nominal Floor to Ceiling Height {m}

OS:ScheduleTypeLimits,
  {c50de33e-2a31-403b-929e-8d1c42a993ef}, !- Handle
  Fractional,                             !- Name
  0,                                      !- Lower Limit Value
  1,                                      !- Upper Limit Value
  Continuous;                             !- Numeric Type

OS:ScheduleTypeLimits,
  {53148dd4-84bd-4672-a23f-d1e6e10976bd}, !- Handle
  Temperature 4,                          !- Name
  ,                                       !- Lower Limit Value
  ,                                       !- Upper Limit Value
  Continuous,                             !- Numeric Type
  Temperature;                            !- Unit Type

OS:Site,
  {67954095-e568-4057-a467-6d726fa7832a}, !- Handle
  Chicago Ohare Intl Ap,                  !- Name
  41.98,                                  !- Latitude {deg}
  -87.92,                                 !- Longitude {deg}
  -6,                                     !- Time Zone {hr}
  201,                                    !- Elevation {m}
  City;                                   !- Terrain

OS:YearDescription,
  {ced9d852-3dbd-4e6c-ade7-1e572711c3f2}, !- Handle
  ,                                       !- Calendar Year
  Sunday;                                 !- Day of Week for Start Day

OS:ClimateZones,
  {f9298a12-fa75-446c-a6a6-301b9e4dc7b8}, !- Handle
  ,                                       !- Active Institution
  ,                                       !- Active Year
  ASHRAE,                                 !- Climate Zone Institution Name 1
  ANSI/ASHRAE Standard 169,               !- Climate Zone Document Name 1
  2006,                                   !- Climate Zone Document Year 1
  5A,                                     !- Climate Zone Value 1
  CEC,                                    !- Climate Zone Institution Name 2
  California Climate Zone Descriptions,   !- Climate Zone Document Name 2
  1995,                                   !- Climate Zone Document Year 2
  ;                                       !- Climate Zone Value 2

OS:LifeCycleCost:Parameters,
  {fb618376-732f-4376-831c-e5bee8e3ceba}, !- Handle
  FEMP,                                   !- Analysis Type
  ,                                       !- Discounting Convention
  ,                                       !- Inflation Approach
  ,                                       !- Real Discount Rate
  ,                                       !- Nominal Discount Rate
  ,                                       !- Inflation
  ,                                       !- Base Date Month
  ,                                       !- Base Date Year
  ,                                       !- Service Date Month
  ,                                       !- Service Date Year
  ,                                       !- Length of Study Period in Years
  ,                                       !- Tax Rate
  ,                                       !- Depreciation Method
  Yes;                                    !- Use NIST Fuel Escalation Rates

OS:Facility,
  {67aa9559-41cc-4015-a2b3-ee95a9bcd8ad}; !- Handle

OS:BuildingStory,
  {6ea537ef-4b99-4564-bedb-80e2e777d30a}, !- Handle
  Building Story 1,                       !- Name
  0,                                      !- Nominal Z Coordinate {m}
  3.048,                                  !- Nominal Floor to Floor Height {m}
  ,                                       !- Default Construction Set Name
  ,                                       !- Default Schedule Set Name
  {74e2295f-c2c0-43a8-9005-6547fae0cb7f}; !- Group Rendering Name

OS:Space,
  {b51d31ac-0431-46c6-a49d-309d83878e32}, !- Handle
  Space101,                               !- Name
  {be29f720-c7ac-4d6e-925a-dec224cc3ce4}, !- Space Type Name
  ,                                       !- Default Construction Set Name
  ,                                       !- Default Schedule Set Name
  ,                                       !- Direction of Relative North {deg}
  0,                                      !- X Origin {m}
  0,                                      !- Y Origin {m}
  0,                                      !- Z Origin {m}
  {6ea537ef-4b99-4564-bedb-80e2e777d30a}, !- Building Story Name
  {7789140a-1f27-407c-9ba1-342bbfeae076}, !- Thermal Zone Name
  ,                                       !- Part of Total Floor Area
  ,                                       !- Design Specification Outdoor Air Object Name
  ;                                       !- Building Unit Name

OS:Surface,
  {c6144e0f-8442-48ab-b9b7-d7cadf8b66d0}, !- Handle
  Space101_Floor,                         !- Name
  Floor,                                  !- Surface Type
  ,                                       !- Construction Name
  {b51d31ac-0431-46c6-a49d-309d83878e32}, !- Space Name
  Ground,                                 !- Outside Boundary Condition
  ,                                       !- Outside Boundary Condition Object
  NoSun,                                  !- Sun Exposure
  NoWind,                                 !- Wind Exposure
  ,                                       !- View Factor to Ground
  ,                                       !- Number of Vertices
  9.144, 6.096, 0,                        !- X,Y,Z Vertex 1 {m}
  9.144, 0, 0,                            !- X,Y,Z Vertex 2 {m}
  0, 0, 0,                                !- X,Y,Z Vertex 3 {m}
  0, 6.096, 0;                            !- X,Y,Z Vertex 4 {m}

OS:Surface,
  {29f556ee-da43-4beb-b82d-1da783745eec}, !- Handle
  Space101_Wall_West,                     !- Name
  Wall,                                   !- Surface Type
  ,                                       !- Construction Name
  {b51d31ac-0431-46c6-a49d-309d83878e32}, !- Space Name
  Outdoors,                               !- Outside Boundary Condition
  ,                                       !- Outside Boundary Condition Object
  SunExposed,                             !- Sun Exposure
  WindExposed,                            !- Wind Exposure
  ,                                       !- View Factor to Ground
  ,                                       !- Number of Vertices
  0, 6.096, 3.048,                        !- X,Y,Z Vertex 1 {m}
  0, 6.096, 0,                            !- X,Y,Z Vertex 2 {m}
  0, 0, 0,                                !- X,Y,Z Vertex 3 {m}
  0, 0, 3.048;                            !- X,Y,Z Vertex 4 {m}

OS:Surface,
  {8723378b-af67-4da8-abd1-9f3700c7e084}, !- Handle
  Space101_Wall_North,                    !- Name
  Wall,                                   !- Surface Type
  ,                                       !- Construction Name
  {b51d31ac-0431-46c6-a49d-309d83878e32}, !- Space Name
  Outdoors,                               !- Outside Boundary Condition
  ,                                       !- Outside Boundary Condition Object
  SunExposed,                             !- Sun Exposure
  WindExposed,                            !- Wind Exposure
  ,                                       !- View Factor to Ground
  ,                                       !- Number of Vertices
  9.144, 6.096, 3.048,                    !- X,Y,Z Vertex 1 {m}
  9.144, 6.096, 0,                        !- X,Y,Z Vertex 2 {m}
  0, 6.096, 0,                            !- X,Y,Z Vertex 3 {m}
  0, 6.096, 3.048;                        !- X,Y,Z Vertex 4 {m}

OS:Surface,
  {7a1f5a1f-320b-4e94-9e27-f773e9877bb2}, !- Handle
  Space101_Wall_East,                     !- Name
  Wall,                                   !- Surface Type
  ,                                       !- Construction Name
  {b51d31ac-0431-46c6-a49d-309d83878e32}, !- Space Name
  Outdoors,                               !- Outside Boundary Condition
  ,                                       !- Outside Boundary Condition Object
  SunExposed,                             !- Sun Exposure
  WindExposed,                            !- Wind Exposure
  ,                                       !- View Factor to Ground
  ,                                       !- Number of Vertices
  9.144, 0, 3.048,                        !- X,Y,Z Vertex 1 {m}
  9.144, 0, 0,                            !- X,Y,Z Vertex 2 {m}
  9.144, 6.096, 0,                        !- X,Y,Z Vertex 3 {m}
  9.144, 6.096, 3.048;                    !- X,Y,Z Vertex 4 {m}

OS:Surface,
  {411c2924-9483-4293-a851-6e1ee18a97ab}, !- Handle
  Space101_Wall_South,                    !- Name
  Wall,                                   !- Surface Type
  ,                                       !- Construction Name
  {b51d31ac-0431-46c6-a49d-309d83878e32}, !- Space Name
  Outdoors,                               !- Outside Boundary Condition
  ,                                       !- Outside Boundary Condition Object
  SunExposed,                             !- Sun Exposure
  WindExposed,                            !- Wind Exposure
  ,                                       !- View Factor to Ground
  ,                                       !- Number of Vertices
  0, 0, 3.048,                            !- X,Y,Z Vertex 1 {m}
  0, 0, 0,                                !- X,Y,Z Vertex 2 {m}
  9.144, 0, 0,                            !- X,Y,Z Vertex 3 {m}
  9.144, 0, 3.048;                        !- X,Y,Z Vertex 4 {m}

OS:Surface,
  {2cc1e692-af2f-4181-a521-7453d5bdd2d9}, !- Handle
  Space101_Ceiling,                       !- Name
  RoofCeiling,                            !- Surface Type
  ,                                       !- Construction Name
  {b51d31ac-0431-46c6-a49d-309d83878e32}, !- Space Name
  Outdoors,                               !- Outside Boundary Condition
  ,                                       !- Outside Boundary Condition Object
  SunExposed,                             !- Sun Exposure
  WindExposed,                            !- Wind Exposure
  ,                                       !- View Factor to Ground
  ,                                       !- Number of Vertices
  9.144, 0, 3.048,                        !- X,Y,Z Vertex 1 {m}
  9.144, 6.096, 3.048,                    !- X,Y,Z Vertex 2 {m}
  0, 6.096, 3.048,                        !- X,Y,Z Vertex 3 {m}
  0, 0, 3.048;                            !- X,Y,Z Vertex 4 {m}

OS:Rendering:Color,
  {74e2295f-c2c0-43a8-9005-6547fae0cb7f}, !- Handle
  Rendering Color 59,                     !- Name
  72,                                     !- Rendering Red Value
  61,                                     !- Rendering Green Value
  139;                                    !- Rendering Blue Value

OS:SimulationControl,
  {c91068be-78cd-460a-9994-150e04e7f4a9}, !- Handle
  Yes,                                    !- Do Zone Sizing Calculation
  Yes,                                    !- Do System Sizing Calculation
  Yes,                                    !- Do Plant Sizing Calculation
  No;                                     !- Run Simulation for Sizing Periods

OS:Sizing:Parameters,
  {2ae4c872-db17-47ea-969b-40ec9cd13a16}, !- Handle
  1.25,                                   !- Heating Sizing Factor
  1.15;                                   !- Cooling Sizing Factor

OS:Timestep,
  {adce0489-a199-40c6-ba4d-c763a8c409ca}, !- Handle
  6;                                      !- Number of Timesteps per Hour

OS:ShadowCalculation,
  {15e9837b-20b4-4b89-a826-f6f9781cdbcf}, !- Handle
  20,                                     !- Calculation Frequency
  15000;                                  !- Maximum Figures in Shadow Overlap Calculations

OS:HeatBalanceAlgorithm,
  {6ad2d8d6-25dc-42ef-9eb7-e21fcfa526a4}, !- Handle
  ConductionTransferFunction,             !- Algorithm
  200;                                    !- Surface Temperature Upper Limit {C}

OS:RunPeriod,
  {bfbc71d1-6f43-4002-affb-ba3ef11f9c9d}, !- Handle
  Run Period 1,                           !- Name
  1,                                      !- Begin Month
  1,                                      !- Begin Day of Month
  12,                                     !- End Month
  31,                                     !- End Day of Month
  ,                                       !- Use Weather File Holidays and Special Days
  ,                                       !- Use Weather File Daylight Saving Period
  ,                                       !- Apply Weekend Holiday Rule
  ,                                       !- Use Weather File Rain Indicators
  ,                                       !- Use Weather File Snow Indicators
  ;                                       !- Number of Times Runperiod to be Repeated

OS:SpaceType,
  {be29f720-c7ac-4d6e-925a-dec224cc3ce4}, !- Handle
  Space Type 1 - 90.1-2013,               !- Name
  ,                                       !- Default Construction Set Name
  {276c86c3-cb6b-4022-8094-6e55aeda949a}, !- Default Schedule Set Name
  {1d6cb0ee-c17e-42c7-a815-1f6c15a05296}, !- Group Rendering Name
  {6c9a6663-22aa-43c4-b210-abe029f8efcd}, !- Design Specification Outdoor Air Object Name
  90.1-2013,                              !- Standards Template
  Office,                                 !- Standards Building Type
  MediumOffice - OpenOffice;              !- Standards Space Type

OS:Rendering:Color,
  {1d6cb0ee-c17e-42c7-a815-1f6c15a05296}, !- Handle
  Rendering Color 60,                     !- Name
  255,                                    !- Rendering Red Value
  0,                                      !- Rendering Green Value
  255;                                    !- Rendering Blue Value

OS:RadianceParameters,
  {0b36e649-e803-4a2d-a174-99bb8b300611}, !- Handle
  1,                                      !- Accumulated Rays per Record
  0,                                      !- Direct Threshold
  1,                                      !- Direct Certainty
  1,                                      !- Direct Jitter
  1,                                      !- Direct Pretest
  6,                                      !- Ambient Bounces VMX
  2,                                      !- Ambient Bounces DMX
  4050,                                   !- Ambient Divisions VMX
  512,                                    !- Ambient Divisions DMX
  256,                                    !- Ambient Supersamples
  0.001,                                  !- Limit Weight VMX
  0.001,                                  !- Limit Weight DMX
  500,                                    !- Klems Sampling Density
  146;                                    !- Sky Discretization Resolution

OS:OutputControl:ReportingTolerances,
  {6e497e91-a1ac-4d12-949c-c4d07b52e736}, !- Handle
  0.555555555555556,                      !- Tolerance for Time Heating Setpoint Not Met {deltaC}
  0.555555555555556;                      !- Tolerance for Time Cooling Setpoint Not Met {deltaC}

OS:ConvergenceLimits,
  {eb2f9f28-5b05-4d12-bce5-50ea6d3e0d9d}, !- Handle
  1;                                      !- Minimum System Timestep {minutes}

OS:SurfaceConvectionAlgorithm:Inside,
  {e86f0ba5-21a8-4069-bdac-b676cea241a8}, !- Handle
  TARP;                                   !- Algorithm

OS:SurfaceConvectionAlgorithm:Outside,
  {2e63b60a-528c-493f-a66b-667294018ba5}, !- Handle
  DOE-2;                                  !- Algorithm

OS:ZoneAirHeatBalanceAlgorithm,
  {30ce6dba-b4d0-42df-8114-8dc85a8558c2}, !- Handle
  ThirdOrderBackwardDifference;           !- Algorithm

OS:ZoneAirContaminantBalance,
  {b62566be-4fc0-4c75-8e1d-029faa7bfe02}; !- Handle

OS:ZoneCapacitanceMultiplier:ResearchSpecial,
  {17f7fa8b-7a81-4493-9642-03184f811161}, !- Handle
  ,                                       !- Temperature Capacity Multiplier
  ,                                       !- Humidity Capacity Multiplier
  ;                                       !- Carbon Dioxide Capacity Multiplier

OS:People:Definition,
  {4bd32392-dde8-4e3c-a5a0-7e84cfbe214f}, !- Handle
  Space Type 1 People Definition,         !- Name
  People/Area,                            !- Number of People Calculation Method
  ,                                       !- Number of People {people}
  0.056510529687726,                      !- People per Space Floor Area {person/m2}
  ,                                       !- Space Floor Area per Person {m2/person}
  0.3;                                    !- Fraction Radiant

OS:People,
  {1e7ae1ca-4fa8-47bf-a5a3-9ddb528f51e8}, !- Handle
  Space Type 1 People,                    !- Name
  {4bd32392-dde8-4e3c-a5a0-7e84cfbe214f}, !- People Definition Name
  {be29f720-c7ac-4d6e-925a-dec224cc3ce4}, !- Space or SpaceType Name
  ,                                       !- Number of People Schedule Name
  ,                                       !- Activity Level Schedule Name
  ,                                       !- Surface Name/Angle Factor List Name
  {ceb0c954-8479-44ec-91f6-7bbe275a712d}, !- Work Efficiency Schedule Name
  {e94e8ae2-701d-421a-90eb-0446351c358f}, !- Clothing Insulation Schedule Name
  {7894eca0-7905-45d9-8dfd-e21a7150847a}, !- Air Velocity Schedule Name
  1;                                      !- Multiplier

OS:Schedule:Ruleset,
  {e94e8ae2-701d-421a-90eb-0446351c358f}, !- Handle
  Clothing Schedule,                      !- Name
  {6b472daf-dfb8-4d74-894c-effec4162861}, !- Schedule Type Limits Name
  {482d2899-1c61-496f-a1da-922e69948432}; !- Default Day Schedule Name

OS:Schedule:Day,
  {482d2899-1c61-496f-a1da-922e69948432}, !- Handle
  Clothing Schedule Default Winter Clothes, !- Name
  {6b472daf-dfb8-4d74-894c-effec4162861}, !- Schedule Type Limits Name
  ,                                       !- Interpolate to Timestep
  24,                                     !- Hour 1
  0,                                      !- Minute 1
  1;                                      !- Value Until Time 1

OS:Schedule:Rule,
  {0d7223d7-5a98-4fbd-aa9c-95c2da16f3c9}, !- Handle
  Schedule Rule 1,                        !- Name
  {e94e8ae2-701d-421a-90eb-0446351c358f}, !- Schedule Ruleset Name
  0,                                      !- Rule Order
  {2992944b-bbcf-4d92-9f09-eb767ed39a24}, !- Day Schedule Name
  ,                                       !- Apply Sunday
  ,                                       !- Apply Monday
  ,                                       !- Apply Tuesday
  ,                                       !- Apply Wednesday
  ,                                       !- Apply Thursday
  ,                                       !- Apply Friday
  ,                                       !- Apply Saturday
  ,                                       !- Apply Holiday
  DateRange,                              !- Date Specification Type
  5,                                      !- Start Month
  1,                                      !- Start Day
  9,                                      !- End Month
  30;                                     !- End Day

OS:Schedule:Day,
  {2992944b-bbcf-4d92-9f09-eb767ed39a24}, !- Handle
  Clothing Schedule Summer Clothes,       !- Name
  {6b472daf-dfb8-4d74-894c-effec4162861}, !- Schedule Type Limits Name
  ,                                       !- Interpolate to Timestep
  24,                                     !- Hour 1
  0,                                      !- Minute 1
  0.5;                                    !- Value Until Time 1

OS:ScheduleTypeLimits,
  {6b472daf-dfb8-4d74-894c-effec4162861}, !- Handle
  ClothingInsulation,                     !- Name
  0,                                      !- Lower Limit Value
  ,                                       !- Upper Limit Value
  Continuous,                             !- Numeric Type
  ClothingInsulation;                     !- Unit Type

OS:Schedule:Ruleset,
  {7894eca0-7905-45d9-8dfd-e21a7150847a}, !- Handle
  Air Velocity Schedule,                  !- Name
  {98ecfb1f-7b6c-4b08-8a1c-4105687714d0}, !- Schedule Type Limits Name
  {ce1ab88d-5d73-464e-8355-270ccab2fd8b}; !- Default Day Schedule Name

OS:Schedule:Day,
  {ce1ab88d-5d73-464e-8355-270ccab2fd8b}, !- Handle
  Air Velocity Schedule Default,          !- Name
  {98ecfb1f-7b6c-4b08-8a1c-4105687714d0}, !- Schedule Type Limits Name
  ,                                       !- Interpolate to Timestep
  24,                                     !- Hour 1
  0,                                      !- Minute 1
  0.2;                                    !- Value Until Time 1

OS:ScheduleTypeLimits,
  {98ecfb1f-7b6c-4b08-8a1c-4105687714d0}, !- Handle
  Velocity,                               !- Name
  0,                                      !- Lower Limit Value
  ,                                       !- Upper Limit Value
  Continuous,                             !- Numeric Type
  Velocity;                               !- Unit Type

OS:Schedule:Ruleset,
  {ceb0c954-8479-44ec-91f6-7bbe275a712d}, !- Handle
  Work Efficiency Schedule,               !- Name
  {c50de33e-2a31-403b-929e-8d1c42a993ef}, !- Schedule Type Limits Name
  {65fe35d1-0650-44d6-9594-4774bd0421ec}; !- Default Day Schedule Name

OS:Schedule:Day,
  {65fe35d1-0650-44d6-9594-4774bd0421ec}, !- Handle
  Work Efficiency Schedule Default,       !- Name
  {c50de33e-2a31-403b-929e-8d1c42a993ef}, !- Schedule Type Limits Name
  ,                                       !- Interpolate to Timestep
  24,                                     !- Hour 1
  0,                                      !- Minute 1
  0;                                      !- Value Until Time 1

OS:Lights:Definition,
  {5c3fc60b-c80c-4d12-ae8d-b84c000febfd}, !- Handle
  Space Type 1 Lights Definition,         !- Name
  Watts/Area,                             !- Design Level Calculation Method
  ,                                       !- Lighting Level {W}
  10.5486322083755,                       !- Watts per Space Floor Area {W/m2}
  ,                                       !- Watts per Person {W/person}
  0.7,                                    !- Fraction Radiant
  0.2;                                    !- Fraction Visible

OS:Lights,
  {13b9d21c-219d-4c75-8d16-d66fa7a55807}, !- Handle
  Space Type 1 Lights,                    !- Name
  {5c3fc60b-c80c-4d12-ae8d-b84c000febfd}, !- Lights Definition Name
  {be29f720-c7ac-4d6e-925a-dec224cc3ce4}, !- Space or SpaceType Name
  ,                                       !- Schedule Name
  0,                                      !- Fraction Replaceable
  ,                                       !- Multiplier
  General;                                !- End-Use Subcategory

OS:ElectricEquipment:Definition,
  {01974a81-e2b2-4abc-b8e7-0808f3444c41}, !- Handle
  Space Type 1 Elec Equip Definition,     !- Name
  Watts/Area,                             !- Design Level Calculation Method
  ,                                       !- Design Level {W}
  10.3333540000413,                       !- Watts per Space Floor Area {W/m2}
  ,                                       !- Watts per Person {W/person}
  ,                                       !- Fraction Latent
  0.5;                                    !- Fraction Radiant

OS:ElectricEquipment,
  {a48fabd5-7112-425a-81ea-6e81e69bd548}, !- Handle
  Space Type 1 Elec Equip,                !- Name
  {01974a81-e2b2-4abc-b8e7-0808f3444c41}, !- Electric Equipment Definition Name
  {be29f720-c7ac-4d6e-925a-dec224cc3ce4}, !- Space or SpaceType Name
  ,                                       !- Schedule Name
  ,                                       !- Multiplier
  General;                                !- End-Use Subcategory

OS:DesignSpecification:OutdoorAir,
  {6c9a6663-22aa-43c4-b210-abe029f8efcd}, !- Handle
  Space Type 1 Ventilation,               !- Name
  Sum,                                    !- Outdoor Air Method
  0.002359737216,                         !- Outdoor Air Flow per Person {m3/s-person}
  0.0003048,                              !- Outdoor Air Flow per Floor Area {m3/s-m2}
  ,                                       !- Outdoor Air Flow Rate {m3/s}
  ,                                       !- Outdoor Air Flow Air Changes per Hour {1/hr}
  ;                                       !- Outdoor Air Flow Rate Fraction Schedule Name

OS:DefaultScheduleSet,
  {276c86c3-cb6b-4022-8094-6e55aeda949a}, !- Handle
  Space Type 1 Schedule Set,              !- Name
  ,                                       !- Hours of Operation Schedule Name
  {a2adb024-bdcb-4f9e-a13c-a4bdfa385f40}, !- Number of People Schedule Name
  {96ac4bf3-c4f2-4079-b938-7f8bc274a21e}, !- People Activity Level Schedule Name
  {8ece6115-0bea-4529-bb1d-e33af89c3ec4}, !- Lighting Schedule Name
  {42e58ef5-63c6-442a-a883-3f0e96db58c0}, !- Electric Equipment Schedule Name
  ,                                       !- Gas Equipment Schedule Name
  ,                                       !- Hot Water Equipment Schedule Name
  {99f0de42-936c-4917-a89d-bd6a458c23eb}, !- Infiltration Schedule Name
  ,                                       !- Steam Equipment Schedule Name
  ;                                       !- Other Equipment Schedule Name

OS:Schedule:Ruleset,
  {a2adb024-bdcb-4f9e-a13c-a4bdfa385f40}, !- Handle
  OfficeMedium BLDG_OCC_SCH,              !- Name
  {c50de33e-2a31-403b-929e-8d1c42a993ef}, !- Schedule Type Limits Name
  {7c77f034-128c-46f7-944e-2c6152740688}, !- Default Day Schedule Name
  {16163827-de6b-4e3f-adaf-b7db0f5a9f38}, !- Summer Design Day Schedule Name
  {e8d4b499-4ec0-4249-a952-b46b026d26eb}; !- Winter Design Day Schedule Name

OS:Schedule:Day,
  {7c77f034-128c-46f7-944e-2c6152740688}, !- Handle
  OfficeMedium BLDG_OCC_SCH Default,      !- Name
  {c50de33e-2a31-403b-929e-8d1c42a993ef}, !- Schedule Type Limits Name
  ,                                       !- Interpolate to Timestep
  24,                                     !- Hour 1
  0,                                      !- Minute 1
  0;                                      !- Value Until Time 1

OS:Schedule:Rule,
  {c6ab300c-fd1c-41ba-924f-cd4f083fc567}, !- Handle
  Schedule Rule 2,                        !- Name
  {a2adb024-bdcb-4f9e-a13c-a4bdfa385f40}, !- Schedule Ruleset Name
  1,                                      !- Rule Order
  {c718c020-08f3-452c-9adb-7c9bfc5abce8}, !- Day Schedule Name
  ,                                       !- Apply Sunday
  ,                                       !- Apply Monday
  ,                                       !- Apply Tuesday
  ,                                       !- Apply Wednesday
  ,                                       !- Apply Thursday
  ,                                       !- Apply Friday
  Yes,                                    !- Apply Saturday
  ,                                       !- Apply Holiday
  DateRange,                              !- Date Specification Type
  1,                                      !- Start Month
  1,                                      !- Start Day
  12,                                     !- End Month
  31;                                     !- End Day

OS:Schedule:Day,
  {c718c020-08f3-452c-9adb-7c9bfc5abce8}, !- Handle
  OfficeMedium BLDG_OCC_SCH Sat Day,      !- Name
  {c50de33e-2a31-403b-929e-8d1c42a993ef}, !- Schedule Type Limits Name
  ,                                       !- Interpolate to Timestep
  6,                                      !- Hour 1
  0,                                      !- Minute 1
  0,                                      !- Value Until Time 1
  8,                                      !- Hour 2
  0,                                      !- Minute 2
  0.150000005960464,                      !- Value Until Time 2
  12,                                     !- Hour 3
  0,                                      !- Minute 3
  0.300000011920929,                      !- Value Until Time 3
  17,                                     !- Hour 4
  0,                                      !- Minute 4
  0.150000005960464,                      !- Value Until Time 4
  24,                                     !- Hour 5
  0,                                      !- Minute 5
  0;                                      !- Value Until Time 5

OS:Schedule:Day,
  {16163827-de6b-4e3f-adaf-b7db0f5a9f38}, !- Handle
  OfficeMedium BLDG_OCC_SCH Summer Design Day, !- Name
  {c50de33e-2a31-403b-929e-8d1c42a993ef}, !- Schedule Type Limits Name
  ,                                       !- Interpolate to Timestep
  24,                                     !- Hour 1
  0,                                      !- Minute 1
  1;                                      !- Value Until Time 1

OS:Schedule:Rule,
  {f1994f0b-3d1f-4c4a-856b-e9712df37ccb}, !- Handle