
OS:Version,
  {97202865-137e-4bfc-ad0e-8fa99592d7d0}, !- Handle
  1.4.0;                                  !- Version Identifier

OS:SpaceType,
  {11541fc3-ce21-4396-aab0-6cab2dda6f0b}, !- Handle
  189.1-2009 - Office - BreakRoom - CZ1-3, !- Name
  ,                                       !- Default Construction Set Name
  {d1b8bc12-fce9-4a08-bde5-a53b40d6169b}, !- Default Schedule Set Name
  {6c5cfc3b-473b-4aa3-aaf7-ae25e43e464c}, !- Group Rendering Name
  {c93cea92-7379-4a1d-9a00-f0c8468f699a}, !- Design Specification Outdoor Air Object Name
  Office,                                 !- Standards Building Type
  BreakRoom;                              !- Standards Space Type

OS:Rendering:Color,
  {6c5cfc3b-473b-4aa3-aaf7-ae25e43e464c}, !- Handle
  Rendering Color 1,                      !- Name
  230,                                    !- Rendering Red Value
  157,                                    !- Rendering Green Value
  120;                                    !- Rendering Blue Value

OS:DefaultScheduleSet,
  {d1b8bc12-fce9-4a08-bde5-a53b40d6169b}, !- Handle
  189.1-2009 - Office - BreakRoom - CZ1-3 Schedule Set, !- Name
  ,                                       !- Hours of Operation Schedule Name
  {18173406-ec05-47fa-8caf-e79973fc0ab3}, !- Number of People Schedule Name
  {0c294b22-8431-4e1d-889a-9cd8a72084d2}, !- People Activity Level Schedule Name
  {572cfd42-d9a3-4dae-9d69-9bb4768d6247}, !- Lighting Schedule Name
  {9b19828a-412b-40a3-8596-40f065f6b0b1}, !- Electric Equipment Schedule Name
  ,                                       !- Gas Equipment Schedule Name
  ,                                       !- Hot Water Equipment Schedule Name
  {3b5ca520-c49e-4c4b-9522-ed2ed3841a9a}, !- Infiltration Schedule Name
  ,                                       !- Steam Equipment Schedule Name
  ;                                       !- Other Equipment Schedule Name

OS:Lights:Definition,
  {c5cb71a6-ffc0-4af1-8f56-da44c057fe23}, !- Handle
  189.1-2009 - Office - BreakRoom - CZ1-3 Lights Definition, !- Name
  Watts/Area,                             !- Design Level Calculation Method
  ,                                       !- Lighting Level {W}
  11.6250232500465,                       !- Watts per Space Floor Area {W/m2}
  ;                                       !- Watts per Person {W/person}

OS:Lights,
  {2be08b3a-fb6f-438d-b0aa-d94ddc881456}, !- Handle
  189.1-2009 - Office - BreakRoom - CZ1-3 Lights, !- Name
  {c5cb71a6-ffc0-4af1-8f56-da44c057fe23}, !- Lights Definition Name
  {11541fc3-ce21-4396-aab0-6cab2dda6f0b}; !- Space or SpaceType Name

OS:Schedule:Ruleset,
  {572cfd42-d9a3-4dae-9d69-9bb4768d6247}, ! Handle
  Office Bldg Light,                      ! Name
  {3396632e-05b4-4d2f-af9d-c9ea85b12a03}, ! Schedule Type Limits Name
  {d897d856-d1a4-416c-826a-1b7c17067937}, ! Default Day Schedule Name
  {98bd78b7-f25e-421c-be22-a55b06d7ad23}, ! Summer Design Day Schedule Name
  {4e9a538a-cb64-43f1-a838-df1c5e7603d0}; ! Winter Design Day Schedule Name

OS:ScheduleTypeLimits,
  {3396632e-05b4-4d2f-af9d-c9ea85b12a03}, ! Handle
  Fraction,                               ! Name
  0,                                      ! Lower Limit Value
  1,                                      ! Upper Limit Value
  CONTINUOUS;                             ! Numeric Type

OS:Schedule:Day,
  {d897d856-d1a4-416c-826a-1b7c17067937}, ! Handle
  Office Bldg Light Default Schedule,     ! Name
  {3396632e-05b4-4d2f-af9d-c9ea85b12a03}, ! Schedule Type Limits Name
  ,                                       ! Interpolate to Timestep
  5,                                      !- Hour 1
  0,                                      !- Minute 1
  0.05,                                   !- Value Until Time 1
  7,                                      !- Hour 2
  0,                                      !- Minute 2
  0.1,                                    !- Value Until Time 2
  8,                                      !- Hour 3
  0,                                      !- Minute 3
  0.3,                                    !- Value Until Time 3
  17,                                     !- Hour 4
  0,                                      !- Minute 4
  0.9,                                    !- Value Until Time 4
  18,                                     !- Hour 5
  0,                                      !- Minute 5
  0.7,                                    !- Value Until Time 5
  20,                                     !- Hour 6
  0,                                      !- Minute 6
  0.5,                                    !- Value Until Time 6
  22,                                     !- Hour 7
  0,                                      !- Minute 7
  0.3,                                    !- Value Until Time 7
  23,                                     !- Hour 8
  0,                                      !- Minute 8
  0.1,                                    !- Value Until Time 8
  24,                                     !- Hour 9
  0,                                      !- Minute 9
  0.05;                                   !- Value Until Time 9

OS:Schedule:Day,
  {98bd78b7-f25e-421c-be22-a55b06d7ad23}, ! Handle
  Office Bldg Light Summer Design Day,    ! Name
  {3396632e-05b4-4d2f-af9d-c9ea85b12a03}, ! Schedule Type Limits Name
  ,                                       ! Interpolate to Timestep
  24,                                     ! Hour 1
  0,                                      ! Minute 1
  1;                                      ! Value Until Time 1

OS:Schedule:Day,
  {4e9a538a-cb64-43f1-a838-df1c5e7603d0}, ! Handle
  Office Bldg Light Winter Design Day,    ! Name
  {3396632e-05b4-4d2f-af9d-c9ea85b12a03}, ! Schedule Type Limits Name
  ,                                       ! Interpolate to Timestep
  24,                                     ! Hour 1
  0,                                      ! Minute 1
  0;                                      ! Value Until Time 1

OS:Schedule:Rule,
  {a976c2d1-e53d-4528-8fff-fddea99d9864}, ! Handle
  Office Bldg Light Rule 1,               ! Name
  {572cfd42-d9a3-4dae-9d69-9bb4768d6247}, ! Schedule Ruleset Name
  0,                                      ! Rule Order
  {e3550444-a62e-4155-9da8-0aa75eecee13}, ! Day Schedule Name
  Yes,                                    ! Apply Sunday
  No,                                     ! Apply Monday
  No,                                     ! Apply Tuesday
  No,                                     ! Apply Wednesday
  No,                                     ! Apply Thursday
  No,                                     ! Apply Friday
  No,                                     ! Apply Saturday
  ,                                       ! Apply Holiday
  DateRange,                              ! Date Specification Type
  1,                                      ! Start Month
  1,                                      ! Start Day
  12,                                     ! End Month
  31;                                     ! End Day

OS:Schedule:Day,
  {e3550444-a62e-4155-9da8-0aa75eecee13}, ! Handle
  Office Bldg Light Rule 1 Day Schedule,  ! Name
  {3396632e-05b4-4d2f-af9d-c9ea85b12a03}, ! Schedule Type Limits Name
  ,                                       ! Interpolate to Timestep
  24,                                     ! Hour 1
  0,                                      ! Minute 1
  0.050000000000000003;                   ! Value Until Time 1

OS:Schedule:Rule,
  {249c77b7-4cf7-4fb7-82f9-83e7387e0b4f}, ! Handle
  Office Bldg Light Rule 2,               ! Name
  {572cfd42-d9a3-4dae-9d69-9bb4768d6247}, ! Schedule Ruleset Name
  1,                                      ! Rule Order
  {2a9fb97a-f57f-46af-9f89-609129fe0545}, ! Day Schedule Name
  No,                                     ! Apply Sunday
  No,                                     ! Apply Monday
  No,                                     ! Apply Tuesday
  No,                                     ! Apply Wednesday
  No,                                     ! Apply Thursday
  No,                                     ! Apply Friday
  Yes,                                    ! Apply Saturday
  ,                                       ! Apply Holiday
  DateRange,                              ! Date Specification Type
  1,                                      ! Start Month
  1,                                      ! Start Day
  12,                                     ! End Month
  31;                                     ! End Day

OS:Schedule:Day,
  {2a9fb97a-f57f-46af-9f89-609129fe0545}, ! Handle
  Office Bldg Light Rule 2 Day Schedule,  ! Name
  {3396632e-05b4-4d2f-af9d-c9ea85b12a03}, ! Schedule Type Limits Name
  ,                                       ! Interpolate to Timestep
  6,                                      ! Hour 1
  0,                                      ! Minute 1
  0.050000000000000003,                   ! Value Until Time 1
  8,                                      ! Hour 2
  0,                                      ! Minute 2
  0.10000000000000001,                    ! Value Until Time 2
  14,                                     ! Hour 3
  0,                                      ! Minute 3
  0.5,                                    ! Value Until Time 3
  17,                                     ! Hour 4
  0,                                      ! Minute 4
  0.14999999999999999,                    ! Value Until Time 4
  24,                                     ! Hour 5
  0,                                      ! Minute 5
  0.050000000000000003;                   ! Value Until Time 5

OS:DesignSpecification:OutdoorAir,
  {c93cea92-7379-4a1d-9a00-f0c8468f699a}, !- Handle
  189.1-2009 - Office - BreakRoom - CZ1-3 Ventilation, !- Name
  Sum,                                    !- Outdoor Air Method
  0.007079211648,                         !- Outdoor Air Flow per Person {m3/s-person}
  ,                                       !- Outdoor Air Flow per Floor Area {m3/s-m2}
  ,                                       !- Outdoor Air Flow Rate {m3/s}
  ,                                       !- Outdoor Air Flow Air Changes per Hour {1/hr}
  ;                                       !- Outdoor Air Flow Rate Fraction Schedule Name

OS:People:Definition,
  {c0fdfb80-77cc-45f6-8c00-5c52f5385f39}, !- Handle
  189.1-2009 - Office - BreakRoom - CZ1-3 People Definition, !- Name
  People/Area,                            !- Number of People Calculation Method
  ,                                       !- Number of People {people}
  0.538195520835486,                      !- People per Space Floor Area {person/m2}
  ,                                       !- Space Floor Area per Person {m2/person}
  0.3;                                    !- Fraction Radiant

OS:People,
  {c067e404-b48d-4895-ad13-9939bde459f3}, !- Handle
  189.1-2009 - Office - BreakRoom - CZ1-3 People, !- Name
  {c0fdfb80-77cc-45f6-8c00-5c52f5385f39}, !- People Definition Name
  {11541fc3-ce21-4396-aab0-6cab2dda6f0b}; !- Space or SpaceType Name

OS:Schedule:Ruleset,
  {18173406-ec05-47fa-8caf-e79973fc0ab3}, ! Handle
  Office Misc Occ,                        ! Name
  {3396632e-05b4-4d2f-af9d-c9ea85b12a03}, ! Schedule Type Limits Name
  {bbf073b7-a122-4887-a98f-575ba667c943}, ! Default Day Schedule Name
  {0c548838-9da2-4bd9-b36c-37646ad22c51}, ! Summer Design Day Schedule Name
  {38a687e2-5bbc-4e99-83aa-c66338f7c9a1}; ! Winter Design Day Schedule Name

OS:Schedule:Day,
  {bbf073b7-a122-4887-a98f-575ba667c943}, ! Handle
  Office Bldg Occ Default Schedule 1,     ! Name
  {3396632e-05b4-4d2f-af9d-c9ea85b12a03}, ! Schedule Type Limits Name
  ,                                       ! Interpolate to Timestep
  6,                                      !- Hour 1
  0,                                      !- Minute 1
  0,                                      !- Value Until Time 1
  7,                                      !- Hour 2
  0,                                      !- Minute 2
  0.100000001490116,                      !- Value Until Time 2
  8,                                      !- Hour 3
  0,                                      !- Minute 3
  0.200000002980232,                      !- Value Until Time 3
  20,                                     !- Hour 4
  0,                                      !- Minute 4
  0.400000005960464,                      !- Value Until Time 4
  22,                                     !- Hour 5
  0,                                      !- Minute 5
  0.100000001490116,                      !- Value Until Time 5
  24,                                     !- Hour 6
  0,                                      !- Minute 6
  0.0500000007450581;                     !- Value Until Time 6

OS:Schedule:Day,
  {0c548838-9da2-4bd9-b36c-37646ad22c51}, ! Handle
  Office Bldg Occ Summer Design Day 1,    ! Name
  {3396632e-05b4-4d2f-af9d-c9ea85b12a03}, ! Schedule Type Limits Name
  ,                                       ! Interpolate to Timestep
  6,                                      ! Hour 1
  0,                                      ! Minute 1
  0,                                      ! Value Until Time 1
  22,                                     ! Hour 2
  0,                                      ! Minute 2
  1,                                      ! Value Until Time 2
  24,                                     ! Hour 3
  0,                                      ! Minute 3
  0.050000000000000003;                   ! Value Until Time 3

OS:Schedule:Day,
  {38a687e2-5bbc-4e99-83aa-c66338f7c9a1}, ! Handle
  Office Bldg Occ Winter Design Day 1,    ! Name
  {3396632e-05b4-4d2f-af9d-c9ea85b12a03}, ! Schedule Type Limits Name
  ,                                       ! Interpolate to Timestep
  24,                                     ! Hour 1
  0,                                      ! Minute 1
  0;                                      ! Value Until Time 1

OS:Schedule:Rule,
  {1bcc8469-a436-4d27-8b1b-c59142909585}, ! Handle
  Office Misc Occ Rule 1,                 ! Name
  {18173406-ec05-47fa-8caf-e79973fc0ab3}, ! Schedule Ruleset Name
  0,                                      ! Rule Order
  {db9f6156-5491-4f93-b4a9-0f394f1dac19}, ! Day Schedule Name
  Yes,                                    ! Apply Sunday
  No,                                     ! Apply Monday
  No,                                     ! Apply Tuesday
  No,                                     ! Apply Wednesday
  No,                                     ! Apply Thursday
  No,                                     ! Apply Friday
  No,                                     ! Apply Saturday
  ,                                       ! Apply Holiday
  DateRange,                              ! Date Specification Type
  1,                                      ! Start Month
  1,                                      ! Start Day
  12,                                     ! End Month
  31;                                     ! End Day

OS:Schedule:Day,
  {db9f6156-5491-4f93-b4a9-0f394f1dac19}, ! Handle
  Office Bldg Occ Rule 1 Day Schedule 1,  ! Name
  {3396632e-05b4-4d2f-af9d-c9ea85b12a03}, ! Schedule Type Limits Name
  ,                                       ! Interpolate to Timestep
  24,                                     ! Hour 1
  0,                                      ! Minute 1
  0;                                      ! Value Until Time 1

OS:Schedule:Rule,
  {e391260e-b5a1-41b7-8b37-ba55bb2129e5}, ! Handle
  Office Misc Occ Rule 2,                 ! Name
  {18173406-ec05-47fa-8caf-e79973fc0ab3}, ! Schedule Ruleset Name
  1,                                      ! Rule Order
  {36c5427c-794b-465f-b56d-b5a275863a06}, ! Day Schedule Name
  No,                                     ! Apply Sunday
  No,                                     ! Apply Monday
  No,                                     ! Apply Tuesday
  No,                                     ! Apply Wednesday
  No,                                     ! Apply Thursday
  No,                                     ! Apply Friday
  Yes,                                    ! Apply Saturday
  ,                                       ! Apply Holiday
  DateRange,                              ! Date Specification Type
  1,                                      ! Start Month
  1,                                      ! Start Day
  12,                                     ! End Month
  31;                                     ! End Day

OS:Schedule:Day,
  {36c5427c-794b-465f-b56d-b5a275863a06}, ! Handle
  Office Bldg Occ Rule 2 Day Schedule 1,  ! Name
  {3396632e-05b4-4d2f-af9d-c9ea85b12a03}, ! Schedule Type Limits Name
  ,                                       ! Interpolate to Timestep
  6,                                      !- Hour 1
  0,                                      !- Minute 1
  0,                                      !- Value Until Time 1
  8,                                      !- Hour 2
  0,                                      !- Minute 2
  0.100000001490116,                      !- Value Until Time 2
  14,                                     !- Hour 3
  0,                                      !- Minute 3
  0.25,                                   !- Value Until Time 3
  17,                                     !- Hour 4
  0,                                      !- Minute 4
  0.100000001490116,                      !- Value Until Time 4
  24,                                     !- Hour 5
  0,                                      !- Minute 5
  0;                                      !- Value Until Time 5

OS:Schedule:Ruleset,
  {0c294b22-8431-4e1d-889a-9cd8a72084d2}, ! Handle
  Office Activity,                        ! Name
  {ec21ea1d-db6f-4c1f-a7d9-e64626626ae3}, ! Schedule Type Limits Name
  {f11cad80-cd71-40ae-9414-7105d488c6ca}, ! Default Day Schedule Name
  {9a39a477-55ab-42ec-9929-ac1257664a66}, ! Summer Design Day Schedule Name
  {8d7c2ffd-ee11-40f9-9adf-d9191dd45588}; ! Winter Design Day Schedule Name

OS:ScheduleTypeLimits,
  {ec21ea1d-db6f-4c1f-a7d9-e64626626ae3}, !- Handle
  ActivityLevel,                          !- Name
  0,                                      !- Lower Limit Value {BasedOnField A4}
  ,                                       !- Upper Limit Value {BasedOnField A4}
  Continuous,                             !- Numeric Type
  ActivityLevel;                          !- Unit Type

OS:Schedule:Day,
  {f11cad80-cd71-40ae-9414-7105d488c6ca}, ! Handle
  Office Activity Default Schedule,       ! Name
  {ec21ea1d-db6f-4c1f-a7d9-e64626626ae3}, ! Schedule Type Limits Name
  ,                                       ! Interpolate to Timestep
  24,                                     !- Hour 1
  0,                                      !- Minute 1
  132;                                    !- Value Until Time 1

OS:Schedule:Day,
  {9a39a477-55ab-42ec-9929-ac1257664a66}, ! Handle
  Office Activity Summer Design Day,      ! Name
  {ec21ea1d-db6f-4c1f-a7d9-e64626626ae3}, ! Schedule Type Limits Name
  ,                                       ! Interpolate to Timestep
  24,                                     !- Hour 1
  0,                                      !- Minute 1
  132;                                    !- Value Until Time 1

OS:Schedule:Day,
  {8d7c2ffd-ee11-40f9-9adf-d9191dd45588}, ! Handle
  Office Activity Winter Design Day,      ! Name
  {ec21ea1d-db6f-4c1f-a7d9-e64626626ae3}, ! Schedule Type Limits Name
  ,                                       ! Interpolate to Timestep
  24,                                     !- Hour 1
  0,                                      !- Minute 1
  132;                                    !- Value Until Time 1

OS:SpaceInfiltration:DesignFlowRate,
  {a613d55b-0a89-479d-8c63-82af640974ea}, !- Handle
  189.1-2009 - Office - BreakRoom - CZ1-3 Infiltration, !- Name
  {11541fc3-ce21-4396-aab0-6cab2dda6f0b}, !- Space or SpaceType Name
  ,                                       !- Schedule Name
  Flow/ExteriorArea,                      !- Design Flow Rate Calculation Method
  ,                                       !- Design Flow Rate {m3/s}
  ,                                       !- Flow per Space Floor Area {m3/s-m2}
  0.00030226,                             !- Flow per Exterior Surface Area {m3/s-m2}
  ,                                       !- Air Changes per Hour {1/hr}
  ,                                       !- Constant Term Coefficient
  ,                                       !- Temperature Term Coefficient
  ,                                       !- Velocity Term Coefficient
  ;                                       !- Velocity Squared Term Coefficient

OS:Schedule:Ruleset,
  {3b5ca520-c49e-4c4b-9522-ed2ed3841a9a}, ! Handle
  Office Infil Quarter On,                ! Name
  {3396632e-05b4-4d2f-af9d-c9ea85b12a03}, ! Schedule Type Limits Name
  {b070003e-e7d6-41bd-a82f-ba3308928c89}, ! Default Day Schedule Name
  {df0ea941-262e-4434-be7f-94d1508162a6}, ! Summer Design Day Schedule Name
  {f9664c3d-a493-4c2a-9664-4f26398c4d11}; ! Winter Design Day Schedule Name

OS:Schedule:Day,
  {b070003e-e7d6-41bd-a82f-ba3308928c89}, ! Handle
  Office Infil Quarter On Default Schedule, ! Name
  {3396632e-05b4-4d2f-af9d-c9ea85b12a03}, ! Schedule Type Limits Name
  ,                                       ! Interpolate to Timestep
  6,                                      !- Hour 1
  0,                                      !- Minute 1
  1,                                      !- Value Until Time 1
  22,                                     !- Hour 2
  0,                                      !- Minute 2
  0.25,                                   !- Value Until Time 2
  24,                                     !- Hour 3
  0,                                      !- Minute 3
  1;                                      !- Value Until Time 3

OS:Schedule:Day,
  {df0ea941-262e-4434-be7f-94d1508162a6}, ! Handle
  Office Infil Quarter On Summer Design Day, ! Name
  {3396632e-05b4-4d2f-af9d-c9ea85b12a03}, ! Schedule Type Limits Name
  ,                                       ! Interpolate to Timestep
  6,                                      ! Hour 1
  0,                                      ! Minute 1
  1,                                      ! Value Until Time 1
  22,                                     ! Hour 2
  0,                                      ! Minute 2
  0.25,                                   ! Value Until Time 2
  24,                                     ! Hour 3
  0,                                      ! Minute 3
  1;                                      ! Value Until Time 3

OS:Schedule:Day,
  {f9664c3d-a493-4c2a-9664-4f26398c4d11}, ! Handle
  Office Infil Quarter On Winter Design Day, ! Name
  {3396632e-05b4-4d2f-af9d-c9ea85b12a03}, ! Schedule Type Limits Name
  ,                                       ! Interpolate to Timestep
  6,                                      ! Hour 1
  0,                                      ! Minute 1
  1,                                      ! Value Until Time 1
  18,                                     ! Hour 2
  0,                                      ! Minute 2
  0.25,                                   ! Value Until Time 2
  24,                                     ! Hour 3
  0,                                      ! Minute 3
  1;                                      ! Value Until Time 3

OS:Schedule:Rule,
  {31a4ee37-2ed4-445b-9156-c788bc32a84d}, ! Handle
  Office Infil Quarter On Rule 1,         ! Name
  {3b5ca520-c49e-4c4b-9522-ed2ed3841a9a}, ! Schedule Ruleset Name
  0,                                      ! Rule Order
  {0b674927-a024-4cf1-9c47-9c52aea9e42f}, ! Day Schedule Name
  Yes,                                    ! Apply Sunday
  No,                                     ! Apply Monday
  No,                                     ! Apply Tuesday
  No,                                     ! Apply Wednesday
  No,                                     ! Apply Thursday
  No,                                     ! Apply Friday
  No,                                     ! Apply Saturday
  ,                                       ! Apply Holiday
  DateRange,                              ! Date Specification Type
  1,                                      ! Start Month
  1,                                      ! Start Day
  12,                                     ! End Month
  31;                                     ! End Day

OS:Schedule:Day,
  {0b674927-a024-4cf1-9c47-9c52aea9e42f}, ! Handle
  Office Infil Quarter On Rule 1 Day Schedule, ! Name
  {3396632e-05b4-4d2f-af9d-c9ea85b12a03}, ! Schedule Type Limits Name
  ,                                       ! Interpolate to Timestep
  24,                                     ! Hour 1
  0,                                      ! Minute 1
  1;                                      ! Value Until Time 1

OS:Schedule:Rule,
  {97cbbc2b-e559-448d-9973-83e196ca1f7d}, ! Handle
  Office Infil Quarter On Rule 2,         ! Name
  {3b5ca520-c49e-4c4b-9522-ed2ed3841a9a}, ! Schedule Ruleset Name
  1,                                      ! Rule Order
  {a76e67a4-c05e-48cf-942c-85b4a5a2665e}, ! Day Schedule Name
  No,                                     ! Apply Sunday
  No,                                     ! Apply Monday
  No,                                     ! Apply Tuesday
  No,                                     ! Apply Wednesday
  No,                                     ! Apply Thursday
  No,                                     ! Apply Friday
  Yes,                                    ! Apply Saturday
  ,                                       ! Apply Holiday
  DateRange,                              ! Date Specification Type
  1,                                      ! Start Month
  1,                                      ! Start Day
  12,                                     ! End Month
  31;                                     ! End Day

OS:Schedule:Day,
  {a76e67a4-c05e-48cf-942c-85b4a5a2665e}, ! Handle
  Office Infil Quarter On Rule 2 Day Schedule, ! Name
  {3396632e-05b4-4d2f-af9d-c9ea85b12a03}, ! Schedule Type Limits Name
  ,                                       ! Interpolate to Timestep
  6,                                      ! Hour 1
  0,                                      ! Minute 1
  1,                                      ! Value Until Time 1
  18,                                     ! Hour 2
  0,                                      ! Minute 2
  0.25,                                   ! Value Until Time 2
  24,                                     ! Hour 3
  0,                                      ! Minute 3
  1;                                      ! Value Until Time 3

OS:ElectricEquipment:Definition,
  {b34b24c0-8124-4b9d-8cb4-4e04bfc8d078}, !- Handle
  189.1-2009 - Office - BreakRoom - CZ1-3 Electric Equipment Definition, !- Name
  Watts/Area,                             !- Design Level Calculation Method
  ,                                       !- Design Level {W}
  48.0070404585254,                       !- Watts per Space Floor Area {W/m2}
  ;                                       !- Watts per Person {W/person}

OS:ElectricEquipment,
  {7b8f211f-1bf8-4218-99b1-08f334033dee}, !- Handle
  189.1-2009 - Office - BreakRoom - CZ1-3 Electric Equipment, !- Name
  {b34b24c0-8124-4b9d-8cb4-4e04bfc8d078}, !- Electric Equipment Definition Name
  {11541fc3-ce21-4396-aab0-6cab2dda6f0b}; !- Space or SpaceType Name

OS:Schedule:Ruleset,
  {9b19828a-412b-40a3-8596-40f065f6b0b1}, ! Handle
  Office Bldg Equip,                      ! Name
  {3396632e-05b4-4d2f-af9d-c9ea85b12a03}, ! Schedule Type Limits Name
  {0e917286-975a-4686-bd7f-15a5dcf9fb99}, ! Default Day Schedule Name
  {f57bb183-b3a8-478f-be9a-8108e2cef02b}, ! Summer Design Day Schedule Name
  {75e21b94-c1c9-4f16-8ef3-3f41aa9cdbb4}; ! Winter Design Day Schedule Name

OS:Schedule:Day,
  {0e917286-975a-4686-bd7f-15a5dcf9fb99}, ! Handle
  Office Bldg Equip Default Schedule,     ! Name
  {3396632e-05b4-4d2f-af9d-c9ea85b12a03}, ! Schedule Type Limits Name
  ,                                       ! Interpolate to Timestep
  8,                                      !- Hour 1
  0,                                      !- Minute 1
  0.4,                                    !- Value Until Time 1
  12,                                     !- Hour 2
  0,                                      !- Minute 2
  0.9,                                    !- Value Until Time 2
  13,                                     !- Hour 3
  0,                                      !- Minute 3
  0.8,                                    !- Value Until Time 3
  17,                                     !- Hour 4
  0,                                      !- Minute 4
  0.9,                                    !- Value Until Time 4
  18,                                     !- Hour 5
  0,                                      !- Minute 5
  0.8,                                    !- Value Until Time 5
  20,                                     !- Hour 6
  0,                                      !- Minute 6
  0.6,                                    !- Value Until Time 6
  22,                                     !- Hour 7
  0,                                      !- Minute 7
  0.5,                                    !- Value Until Time 7
  24,                                     !- Hour 8
  0,                                      !- Minute 8
  0.4;                                    !- Value Until Time 8

OS:Schedule:Day,
  {f57bb183-b3a8-478f-be9a-8108e2cef02b}, ! Handle
  Office Bldg Equip Summer Design Day,    ! Name
  {3396632e-05b4-4d2f-af9d-c9ea85b12a03}, ! Schedule Type Limits Name
  ,                                       ! Interpolate to Timestep
  24,                                     ! Hour 1
  0,                                      ! Minute 1
  1;                                      ! Value Until Time 1

OS:Schedule:Day,
  {75e21b94-c1c9-4f16-8ef3-3f41aa9cdbb4}, ! Handle
  Office Bldg Equip Winter Design Day,    ! Name
  {3396632e-05b4-4d2f-af9d-c9ea85b12a03}, ! Schedule Type Limits Name